
---------- Begin Simulation Statistics ----------
simSeconds                                   0.002046                       # Number of seconds simulated (Second)
simTicks                                   2046433500                       # Number of ticks simulated (Tick)
finalTick                                  2046433500                       # Number of ticks from beginning of simulation (restored from checkpoints and never reset) (Tick)
simFreq                                  1000000000000                       # The number of ticks per simulated second ((Tick/Second))
hostSeconds                                     38.89                       # Real time elapsed on the host (Second)
hostTickRate                                 52616633                       # The number of ticks simulated per host second (ticks/s) ((Tick/Second))
hostMemory                                    1998500                       # Number of bytes of host memory used (Byte)
simInsts                                      4063056                       # Number of instructions simulated (Count)
simOps                                        7088374                       # Number of ops (including micro ops) simulated (Count)
hostInstRate                                   104467                       # Simulator instruction rate (inst/s) ((Count/Second))
hostOpRate                                     182251                       # Simulator op (including micro ops) rate (op/s) ((Count/Second))
system.clk_domain.clock                           500                       # Clock period in ticks (Tick)
system.clk_domain.voltage_domain.voltage            1                       # Voltage in Volts (Volt)
system.cpu.numCycles                          4092868                       # Number of cpu cycles simulated (Cycle)
system.cpu.cpi                               1.007337                       # CPI: cycles per instruction (core level) ((Cycle/Count))
system.cpu.ipc                               0.992716                       # IPC: instructions per cycle (core level) ((Count/Cycle))
system.cpu.numWorkItemsStarted                      0                       # Number of work items this cpu started (Count)
system.cpu.numWorkItemsCompleted                    0                       # Number of work items this cpu completed (Count)
system.cpu.instsAdded                         7159500                       # Number of instructions added to the IQ (excludes non-spec) (Count)
system.cpu.nonSpecInstsAdded                      478                       # Number of non-speculative instructions added to the IQ (Count)
system.cpu.instsIssued                        7143226                       # Number of instructions issued (Count)
system.cpu.squashedInstsIssued                    874                       # Number of squashed instructions issued (Count)
system.cpu.squashedInstsExamined                71598                       # Number of squashed instructions iterated over during squash; mainly for profiling (Count)
system.cpu.squashedOperandsExamined             99073                       # Number of squashed operands that are examined and possibly removed from graph (Count)
system.cpu.squashedNonSpecRemoved                  94                       # Number of squashed non-spec instructions that were removed (Count)
system.cpu.numIssuedDist::samples             3997427                       # Number of insts issued each cycle (Count)
system.cpu.numIssuedDist::mean               1.786956                       # Number of insts issued each cycle (Count)
system.cpu.numIssuedDist::stdev              1.273006                       # Number of insts issued each cycle (Count)
system.cpu.numIssuedDist::underflows                0      0.00%      0.00% # Number of insts issued each cycle (Count)
system.cpu.numIssuedDist::0                    704355     17.62%     17.62% # Number of insts issued each cycle (Count)
system.cpu.numIssuedDist::1                   1119773     28.01%     45.63% # Number of insts issued each cycle (Count)
system.cpu.numIssuedDist::2                   1019138     25.49%     71.13% # Number of insts issued each cycle (Count)
system.cpu.numIssuedDist::3                    631467     15.80%     86.92% # Number of insts issued each cycle (Count)
system.cpu.numIssuedDist::4                    522694     13.08%    100.00% # Number of insts issued each cycle (Count)
system.cpu.numIssuedDist::overflows                 0      0.00%    100.00% # Number of insts issued each cycle (Count)
system.cpu.numIssuedDist::min_value                 0                       # Number of insts issued each cycle (Count)
system.cpu.numIssuedDist::max_value                 4                       # Number of insts issued each cycle (Count)
system.cpu.numIssuedDist::total               3997427                       # Number of insts issued each cycle (Count)
system.cpu.statFuBusy::No_OpClass                   0                       # attempts to use FU when none available (Count)
system.cpu.statFuBusy::IntAlu                       0                       # attempts to use FU when none available (Count)
system.cpu.statFuBusy::IntMult                      0                       # attempts to use FU when none available (Count)
system.cpu.statFuBusy::IntDiv                       0                       # attempts to use FU when none available (Count)
system.cpu.statFuBusy::FloatAdd                     0                       # attempts to use FU when none available (Count)
system.cpu.statFuBusy::FloatCmp                     0                       # attempts to use FU when none available (Count)
system.cpu.statFuBusy::FloatCvt                     0                       # attempts to use FU when none available (Count)
system.cpu.statFuBusy::FloatMult                    0                       # attempts to use FU when none available (Count)
system.cpu.statFuBusy::FloatMultAcc                 0                       # attempts to use FU when none available (Count)
system.cpu.statFuBusy::FloatDiv                     0                       # attempts to use FU when none available (Count)
system.cpu.statFuBusy::FloatMisc                    0                       # attempts to use FU when none available (Count)
system.cpu.statFuBusy::FloatSqrt                    0                       # attempts to use FU when none available (Count)
system.cpu.statFuBusy::SimdAdd                      0                       # attempts to use FU when none available (Count)
system.cpu.statFuBusy::SimdAddAcc                   0                       # attempts to use FU when none available (Count)
system.cpu.statFuBusy::SimdAlu                      0                       # attempts to use FU when none available (Count)
system.cpu.statFuBusy::SimdCmp                      0                       # attempts to use FU when none available (Count)
system.cpu.statFuBusy::SimdCvt                      0                       # attempts to use FU when none available (Count)
system.cpu.statFuBusy::SimdMisc                     0                       # attempts to use FU when none available (Count)
system.cpu.statFuBusy::SimdMult                     0                       # attempts to use FU when none available (Count)
system.cpu.statFuBusy::SimdMultAcc                  0                       # attempts to use FU when none available (Count)
system.cpu.statFuBusy::SimdMatMultAcc               0                       # attempts to use FU when none available (Count)
system.cpu.statFuBusy::SimdShift                    0                       # attempts to use FU when none available (Count)
system.cpu.statFuBusy::SimdShiftAcc                 0                       # attempts to use FU when none available (Count)
system.cpu.statFuBusy::SimdDiv                      0                       # attempts to use FU when none available (Count)
system.cpu.statFuBusy::SimdSqrt                     0                       # attempts to use FU when none available (Count)
system.cpu.statFuBusy::SimdFloatAdd                 0                       # attempts to use FU when none available (Count)
system.cpu.statFuBusy::SimdFloatAlu                 0                       # attempts to use FU when none available (Count)
system.cpu.statFuBusy::SimdFloatCmp                 0                       # attempts to use FU when none available (Count)
system.cpu.statFuBusy::SimdFloatCvt                 0                       # attempts to use FU when none available (Count)
system.cpu.statFuBusy::SimdFloatDiv                 0                       # attempts to use FU when none available (Count)
system.cpu.statFuBusy::SimdFloatMisc                0                       # attempts to use FU when none available (Count)
system.cpu.statFuBusy::SimdFloatMult                0                       # attempts to use FU when none available (Count)
system.cpu.statFuBusy::SimdFloatMultAcc             0                       # attempts to use FU when none available (Count)
system.cpu.statFuBusy::SimdFloatMatMultAcc            0                       # attempts to use FU when none available (Count)
system.cpu.statFuBusy::SimdFloatSqrt                0                       # attempts to use FU when none available (Count)
system.cpu.statFuBusy::SimdReduceAdd                0                       # attempts to use FU when none available (Count)
system.cpu.statFuBusy::SimdReduceAlu                0                       # attempts to use FU when none available (Count)
system.cpu.statFuBusy::SimdReduceCmp                0                       # attempts to use FU when none available (Count)
system.cpu.statFuBusy::SimdFloatReduceAdd            0                       # attempts to use FU when none available (Count)
system.cpu.statFuBusy::SimdFloatReduceCmp            0                       # attempts to use FU when none available (Count)
system.cpu.statFuBusy::SimdAes                      0                       # attempts to use FU when none available (Count)
system.cpu.statFuBusy::SimdAesMix                   0                       # attempts to use FU when none available (Count)
system.cpu.statFuBusy::SimdSha1Hash                 0                       # attempts to use FU when none available (Count)
system.cpu.statFuBusy::SimdSha1Hash2                0                       # attempts to use FU when none available (Count)
system.cpu.statFuBusy::SimdSha256Hash               0                       # attempts to use FU when none available (Count)
system.cpu.statFuBusy::SimdSha256Hash2              0                       # attempts to use FU when none available (Count)
system.cpu.statFuBusy::SimdShaSigma2                0                       # attempts to use FU when none available (Count)
system.cpu.statFuBusy::SimdShaSigma3                0                       # attempts to use FU when none available (Count)
system.cpu.statFuBusy::SimdPredAlu                  0                       # attempts to use FU when none available (Count)
system.cpu.statFuBusy::Matrix                       0                       # attempts to use FU when none available (Count)
system.cpu.statFuBusy::MatrixMov                    0                       # attempts to use FU when none available (Count)
system.cpu.statFuBusy::MatrixOP                     0                       # attempts to use FU when none available (Count)
system.cpu.statFuBusy::MemRead                      0                       # attempts to use FU when none available (Count)
system.cpu.statFuBusy::MemWrite                     0                       # attempts to use FU when none available (Count)
system.cpu.statFuBusy::FloatMemRead                 0                       # attempts to use FU when none available (Count)
system.cpu.statFuBusy::FloatMemWrite                0                       # attempts to use FU when none available (Count)
system.cpu.statFuBusy::IprAccess                    0                       # attempts to use FU when none available (Count)
system.cpu.statFuBusy::InstPrefetch                 0                       # attempts to use FU when none available (Count)
system.cpu.statFuBusy::SimdUnitStrideLoad            0                       # attempts to use FU when none available (Count)
system.cpu.statFuBusy::SimdUnitStrideStore            0                       # attempts to use FU when none available (Count)
system.cpu.statFuBusy::SimdUnitStrideMaskLoad            0                       # attempts to use FU when none available (Count)
system.cpu.statFuBusy::SimdUnitStrideMaskStore            0                       # attempts to use FU when none available (Count)
system.cpu.statFuBusy::SimdStridedLoad              0                       # attempts to use FU when none available (Count)
system.cpu.statFuBusy::SimdStridedStore             0                       # attempts to use FU when none available (Count)
system.cpu.statFuBusy::SimdIndexedLoad              0                       # attempts to use FU when none available (Count)
system.cpu.statFuBusy::SimdIndexedStore             0                       # attempts to use FU when none available (Count)
system.cpu.statFuBusy::SimdWholeRegisterLoad            0                       # attempts to use FU when none available (Count)
system.cpu.statFuBusy::SimdWholeRegisterStore            0                       # attempts to use FU when none available (Count)
system.cpu.statFuBusy::SimdUnitStrideFaultOnlyFirstLoad            0                       # attempts to use FU when none available (Count)
system.cpu.statFuBusy::SimdUnitStrideSegmentedLoad            0                       # attempts to use FU when none available (Count)
system.cpu.statFuBusy::SimdUnitStrideSegmentedStore            0                       # attempts to use FU when none available (Count)
system.cpu.statFuBusy::SimdExt                      0                       # attempts to use FU when none available (Count)
system.cpu.statFuBusy::SimdFloatExt                 0                       # attempts to use FU when none available (Count)
system.cpu.statFuBusy::SimdConfig                   0                       # attempts to use FU when none available (Count)
system.cpu.statIssuedInstType_0::No_OpClass         1599      0.02%      0.02% # Number of instructions issued per FU type, per thread (Count)
system.cpu.statIssuedInstType_0::IntAlu       3031226     42.43%     42.46% # Number of instructions issued per FU type, per thread (Count)
system.cpu.statIssuedInstType_0::IntMult          890      0.01%     42.47% # Number of instructions issued per FU type, per thread (Count)
system.cpu.statIssuedInstType_0::IntDiv          1669      0.02%     42.49% # Number of instructions issued per FU type, per thread (Count)
system.cpu.statIssuedInstType_0::FloatAdd       197543      2.77%     45.26% # Number of instructions issued per FU type, per thread (Count)
system.cpu.statIssuedInstType_0::FloatCmp            0      0.00%     45.26% # Number of instructions issued per FU type, per thread (Count)
system.cpu.statIssuedInstType_0::FloatCvt          304      0.00%     45.26% # Number of instructions issued per FU type, per thread (Count)
system.cpu.statIssuedInstType_0::FloatMult            0      0.00%     45.26% # Number of instructions issued per FU type, per thread (Count)
system.cpu.statIssuedInstType_0::FloatMultAcc            0      0.00%     45.26% # Number of instructions issued per FU type, per thread (Count)
system.cpu.statIssuedInstType_0::FloatDiv            0      0.00%     45.26% # Number of instructions issued per FU type, per thread (Count)
system.cpu.statIssuedInstType_0::FloatMisc            0      0.00%     45.26% # Number of instructions issued per FU type, per thread (Count)
system.cpu.statIssuedInstType_0::FloatSqrt            0      0.00%     45.26% # Number of instructions issued per FU type, per thread (Count)
system.cpu.statIssuedInstType_0::SimdAdd          571      0.01%     45.27% # Number of instructions issued per FU type, per thread (Count)
system.cpu.statIssuedInstType_0::SimdAddAcc            0      0.00%     45.27% # Number of instructions issued per FU type, per thread (Count)
system.cpu.statIssuedInstType_0::SimdAlu       559071      7.83%     53.10% # Number of instructions issued per FU type, per thread (Count)
system.cpu.statIssuedInstType_0::SimdCmp            2      0.00%     53.10% # Number of instructions issued per FU type, per thread (Count)
system.cpu.statIssuedInstType_0::SimdCvt         1568      0.02%     53.12% # Number of instructions issued per FU type, per thread (Count)
system.cpu.statIssuedInstType_0::SimdMisc       542286      7.59%     60.71% # Number of instructions issued per FU type, per thread (Count)
system.cpu.statIssuedInstType_0::SimdMult            0      0.00%     60.71% # Number of instructions issued per FU type, per thread (Count)
system.cpu.statIssuedInstType_0::SimdMultAcc            0      0.00%     60.71% # Number of instructions issued per FU type, per thread (Count)
system.cpu.statIssuedInstType_0::SimdMatMultAcc            0      0.00%     60.71% # Number of instructions issued per FU type, per thread (Count)
system.cpu.statIssuedInstType_0::SimdShift          620      0.01%     60.72% # Number of instructions issued per FU type, per thread (Count)
system.cpu.statIssuedInstType_0::SimdShiftAcc            0      0.00%     60.72% # Number of instructions issued per FU type, per thread (Count)
system.cpu.statIssuedInstType_0::SimdDiv            0      0.00%     60.72% # Number of instructions issued per FU type, per thread (Count)
system.cpu.statIssuedInstType_0::SimdSqrt            0      0.00%     60.72% # Number of instructions issued per FU type, per thread (Count)
system.cpu.statIssuedInstType_0::SimdFloatAdd       442479      6.19%     66.91% # Number of instructions issued per FU type, per thread (Count)
system.cpu.statIssuedInstType_0::SimdFloatAlu            0      0.00%     66.91% # Number of instructions issued per FU type, per thread (Count)
system.cpu.statIssuedInstType_0::SimdFloatCmp            0      0.00%     66.91% # Number of instructions issued per FU type, per thread (Count)
system.cpu.statIssuedInstType_0::SimdFloatCvt       557240      7.80%     74.72% # Number of instructions issued per FU type, per thread (Count)
system.cpu.statIssuedInstType_0::SimdFloatDiv            0      0.00%     74.72% # Number of instructions issued per FU type, per thread (Count)
system.cpu.statIssuedInstType_0::SimdFloatMisc            0      0.00%     74.72% # Number of instructions issued per FU type, per thread (Count)
system.cpu.statIssuedInstType_0::SimdFloatMult       885009     12.39%     87.10% # Number of instructions issued per FU type, per thread (Count)
system.cpu.statIssuedInstType_0::SimdFloatMultAcc            0      0.00%     87.10% # Number of instructions issued per FU type, per thread (Count)
system.cpu.statIssuedInstType_0::SimdFloatMatMultAcc            0      0.00%     87.10% # Number of instructions issued per FU type, per thread (Count)
system.cpu.statIssuedInstType_0::SimdFloatSqrt            0      0.00%     87.10% # Number of instructions issued per FU type, per thread (Count)
system.cpu.statIssuedInstType_0::SimdReduceAdd            0      0.00%     87.10% # Number of instructions issued per FU type, per thread (Count)
system.cpu.statIssuedInstType_0::SimdReduceAlu            0      0.00%     87.10% # Number of instructions issued per FU type, per thread (Count)
system.cpu.statIssuedInstType_0::SimdReduceCmp            0      0.00%     87.10% # Number of instructions issued per FU type, per thread (Count)
system.cpu.statIssuedInstType_0::SimdFloatReduceAdd            0      0.00%     87.10% # Number of instructions issued per FU type, per thread (Count)
system.cpu.statIssuedInstType_0::SimdFloatReduceCmp            0      0.00%     87.10% # Number of instructions issued per FU type, per thread (Count)
system.cpu.statIssuedInstType_0::SimdAes            0      0.00%     87.10% # Number of instructions issued per FU type, per thread (Count)
system.cpu.statIssuedInstType_0::SimdAesMix            0      0.00%     87.10% # Number of instructions issued per FU type, per thread (Count)
system.cpu.statIssuedInstType_0::SimdSha1Hash            0      0.00%     87.10% # Number of instructions issued per FU type, per thread (Count)
system.cpu.statIssuedInstType_0::SimdSha1Hash2            0      0.00%     87.10% # Number of instructions issued per FU type, per thread (Count)
system.cpu.statIssuedInstType_0::SimdSha256Hash            0      0.00%     87.10% # Number of instructions issued per FU type, per thread (Count)
system.cpu.statIssuedInstType_0::SimdSha256Hash2            0      0.00%     87.10% # Number of instructions issued per FU type, per thread (Count)
system.cpu.statIssuedInstType_0::SimdShaSigma2            0      0.00%     87.10% # Number of instructions issued per FU type, per thread (Count)
system.cpu.statIssuedInstType_0::SimdShaSigma3            0      0.00%     87.10% # Number of instructions issued per FU type, per thread (Count)
system.cpu.statIssuedInstType_0::SimdPredAlu            0      0.00%     87.10% # Number of instructions issued per FU type, per thread (Count)
system.cpu.statIssuedInstType_0::Matrix             0      0.00%     87.10% # Number of instructions issued per FU type, per thread (Count)
system.cpu.statIssuedInstType_0::MatrixMov            0      0.00%     87.10% # Number of instructions issued per FU type, per thread (Count)
system.cpu.statIssuedInstType_0::MatrixOP            0      0.00%     87.10% # Number of instructions issued per FU type, per thread (Count)
system.cpu.statIssuedInstType_0::MemRead       371117      5.20%     92.30% # Number of instructions issued per FU type, per thread (Count)
system.cpu.statIssuedInstType_0::MemWrite       265947      3.72%     96.02% # Number of instructions issued per FU type, per thread (Count)
system.cpu.statIssuedInstType_0::FloatMemRead       281986      3.95%     99.97% # Number of instructions issued per FU type, per thread (Count)
system.cpu.statIssuedInstType_0::FloatMemWrite         2099      0.03%    100.00% # Number of instructions issued per FU type, per thread (Count)
system.cpu.statIssuedInstType_0::IprAccess            0      0.00%    100.00% # Number of instructions issued per FU type, per thread (Count)
system.cpu.statIssuedInstType_0::InstPrefetch            0      0.00%    100.00% # Number of instructions issued per FU type, per thread (Count)
system.cpu.statIssuedInstType_0::SimdUnitStrideLoad            0      0.00%    100.00% # Number of instructions issued per FU type, per thread (Count)
system.cpu.statIssuedInstType_0::SimdUnitStrideStore            0      0.00%    100.00% # Number of instructions issued per FU type, per thread (Count)
system.cpu.statIssuedInstType_0::SimdUnitStrideMaskLoad            0      0.00%    100.00% # Number of instructions issued per FU type, per thread (Count)
system.cpu.statIssuedInstType_0::SimdUnitStrideMaskStore            0      0.00%    100.00% # Number of instructions issued per FU type, per thread (Count)
system.cpu.statIssuedInstType_0::SimdStridedLoad            0      0.00%    100.00% # Number of instructions issued per FU type, per thread (Count)
system.cpu.statIssuedInstType_0::SimdStridedStore            0      0.00%    100.00% # Number of instructions issued per FU type, per thread (Count)
system.cpu.statIssuedInstType_0::SimdIndexedLoad            0      0.00%    100.00% # Number of instructions issued per FU type, per thread (Count)
system.cpu.statIssuedInstType_0::SimdIndexedStore            0      0.00%    100.00% # Number of instructions issued per FU type, per thread (Count)
system.cpu.statIssuedInstType_0::SimdWholeRegisterLoad            0      0.00%    100.00% # Number of instructions issued per FU type, per thread (Count)
system.cpu.statIssuedInstType_0::SimdWholeRegisterStore            0      0.00%    100.00% # Number of instructions issued per FU type, per thread (Count)
system.cpu.statIssuedInstType_0::SimdUnitStrideFaultOnlyFirstLoad            0      0.00%    100.00% # Number of instructions issued per FU type, per thread (Count)
system.cpu.statIssuedInstType_0::SimdUnitStrideSegmentedLoad            0      0.00%    100.00% # Number of instructions issued per FU type, per thread (Count)
system.cpu.statIssuedInstType_0::SimdUnitStrideSegmentedStore            0      0.00%    100.00% # Number of instructions issued per FU type, per thread (Count)
system.cpu.statIssuedInstType_0::SimdExt            0      0.00%    100.00% # Number of instructions issued per FU type, per thread (Count)
system.cpu.statIssuedInstType_0::SimdFloatExt            0      0.00%    100.00% # Number of instructions issued per FU type, per thread (Count)
system.cpu.statIssuedInstType_0::SimdConfig            0      0.00%    100.00% # Number of instructions issued per FU type, per thread (Count)
system.cpu.statIssuedInstType_0::total        7143226                       # Number of instructions issued per FU type, per thread (Count)
system.cpu.issueRate                         1.745286                       # Inst issue rate ((Count/Cycle))
system.cpu.fuBusy                                   0                       # FU busy when requested (Count)
system.cpu.fuBusyRate                               0                       # FU busy rate (busy events/executed inst) ((Count/Count))
system.cpu.intInstQueueReads                  9637271                       # Number of integer instruction queue reads (Count)
system.cpu.intInstQueueWrites                 2900077                       # Number of integer instruction queue writes (Count)
system.cpu.intInstQueueWakeupAccesses         2811251                       # Number of integer instruction queue wakeup accesses (Count)
system.cpu.fpInstQueueReads                   8647482                       # Number of floating instruction queue reads (Count)
system.cpu.fpInstQueueWrites                  4331561                       # Number of floating instruction queue writes (Count)
system.cpu.fpInstQueueWakeupAccesses          4322449                       # Number of floating instruction queue wakeup accesses (Count)
system.cpu.vecInstQueueReads                        0                       # Number of vector instruction queue reads (Count)
system.cpu.vecInstQueueWrites                       0                       # Number of vector instruction queue writes (Count)
system.cpu.vecInstQueueWakeupAccesses               0                       # Number of vector instruction queue wakeup accesses (Count)
system.cpu.intAluAccesses                     2817918                       # Number of integer alu accesses (Count)
system.cpu.fpAluAccesses                      4323709                       # Number of floating point alu accesses (Count)
system.cpu.vecAluAccesses                           0                       # Number of vector alu accesses (Count)
system.cpu.numRecvResp                         841994                       # Number of received responses (Count)
system.cpu.numRecvRespBytes                   6661385                       # Number of received response bytes (Byte)
system.cpu.recvRespAvgBW                         1.63                       # Average bandwidth of received responses ((Byte/Cycle))
system.cpu.recvRespAvgSize                       7.91                       # Average packet size per received response ((Byte/Count))
system.cpu.recvRespAvgRate                       0.21                       # Average rate of received responses per cycle ((Count/Cycle))
system.cpu.recvRespAvgRetryRate                  0.00                       # Average retry rate per received response ((Count/Count))
system.cpu.numSendRetryResp                         0                       # Number of retry responses sent (Count)
system.cpu.numSquashedInsts                      5517                       # Number of squashed instructions skipped in execute (Count)
system.cpu.numSwp                                   0                       # Number of swp insts executed (Count)
system.cpu.timesIdled                            1151                       # Number of times that the entire CPU went into an idle state and unscheduled itself (Count)
system.cpu.idleCycles                           95441                       # Total number of cycles that the CPU has spent unscheduled due to idling (Cycle)
system.cpu.MemDepUnit__0.insertedLoads         653939                       # Number of loads inserted to the mem dependence unit. (Count)
system.cpu.MemDepUnit__0.insertedStores        269435                       # Number of stores inserted to the mem dependence unit. (Count)
system.cpu.MemDepUnit__0.conflictingLoads       131895                       # Number of conflicting loads. (Count)
system.cpu.MemDepUnit__0.conflictingStores        88878                       # Number of conflicting stores. (Count)
system.cpu.MemDepUnit__1.insertedLoads              0                       # Number of loads inserted to the mem dependence unit. (Count)
system.cpu.MemDepUnit__1.insertedStores             0                       # Number of stores inserted to the mem dependence unit. (Count)
system.cpu.MemDepUnit__1.conflictingLoads            0                       # Number of conflicting loads. (Count)
system.cpu.MemDepUnit__1.conflictingStores            0                       # Number of conflicting stores. (Count)
system.cpu.MemDepUnit__2.insertedLoads              0                       # Number of loads inserted to the mem dependence unit. (Count)
system.cpu.MemDepUnit__2.insertedStores             0                       # Number of stores inserted to the mem dependence unit. (Count)
system.cpu.MemDepUnit__2.conflictingLoads            0                       # Number of conflicting loads. (Count)
system.cpu.MemDepUnit__2.conflictingStores            0                       # Number of conflicting stores. (Count)
system.cpu.MemDepUnit__3.insertedLoads              0                       # Number of loads inserted to the mem dependence unit. (Count)
system.cpu.MemDepUnit__3.insertedStores             0                       # Number of stores inserted to the mem dependence unit. (Count)
system.cpu.MemDepUnit__3.conflictingLoads            0                       # Number of conflicting loads. (Count)
system.cpu.MemDepUnit__3.conflictingStores            0                       # Number of conflicting stores. (Count)
system.cpu.branchPred.lookups_0::NoBranch          350      0.12%      0.12% # Number of BP lookups (Count)
system.cpu.branchPred.lookups_0::Return         67341     22.60%     22.72% # Number of BP lookups (Count)
system.cpu.branchPred.lookups_0::CallDirect        67452     22.64%     45.36% # Number of BP lookups (Count)
system.cpu.branchPred.lookups_0::CallIndirect          186      0.06%     45.42% # Number of BP lookups (Count)
system.cpu.branchPred.lookups_0::DirectCond       159237     53.45%     98.87% # Number of BP lookups (Count)
system.cpu.branchPred.lookups_0::DirectUncond         2129      0.71%     99.58% # Number of BP lookups (Count)
system.cpu.branchPred.lookups_0::IndirectCond            0      0.00%     99.58% # Number of BP lookups (Count)
system.cpu.branchPred.lookups_0::IndirectUncond         1238      0.42%    100.00% # Number of BP lookups (Count)
system.cpu.branchPred.lookups_0::total         297933                       # Number of BP lookups (Count)
system.cpu.branchPred.squashes_0::NoBranch          307      2.51%      2.51% # Number of branches that got squashed (completely removed) as an earlier branch was mispredicted. (Count)
system.cpu.branchPred.squashes_0::Return          536      4.37%      6.88% # Number of branches that got squashed (completely removed) as an earlier branch was mispredicted. (Count)
system.cpu.branchPred.squashes_0::CallDirect          777      6.34%     13.22% # Number of branches that got squashed (completely removed) as an earlier branch was mispredicted. (Count)
system.cpu.branchPred.squashes_0::CallIndirect           50      0.41%     13.63% # Number of branches that got squashed (completely removed) as an earlier branch was mispredicted. (Count)
system.cpu.branchPred.squashes_0::DirectCond         8871     72.39%     86.01% # Number of branches that got squashed (completely removed) as an earlier branch was mispredicted. (Count)
system.cpu.branchPred.squashes_0::DirectUncond          960      7.83%     93.85% # Number of branches that got squashed (completely removed) as an earlier branch was mispredicted. (Count)
system.cpu.branchPred.squashes_0::IndirectCond            0      0.00%     93.85% # Number of branches that got squashed (completely removed) as an earlier branch was mispredicted. (Count)
system.cpu.branchPred.squashes_0::IndirectUncond          754      6.15%    100.00% # Number of branches that got squashed (completely removed) as an earlier branch was mispredicted. (Count)
system.cpu.branchPred.squashes_0::total         12255                       # Number of branches that got squashed (completely removed) as an earlier branch was mispredicted. (Count)
system.cpu.branchPred.corrected_0::NoBranch           56      1.40%      1.40% # Number of branches that got corrected but not yet commited. Branches get corrected by decode or after execute. Also a branch misprediction can be detected out-of-order. Therefore, a corrected branch might not end up beeing committed in case an even earlier branch was mispredicted (Count)
system.cpu.branchPred.corrected_0::Return            1      0.03%      1.43% # Number of branches that got corrected but not yet commited. Branches get corrected by decode or after execute. Also a branch misprediction can be detected out-of-order. Therefore, a corrected branch might not end up beeing committed in case an even earlier branch was mispredicted (Count)
system.cpu.branchPred.corrected_0::CallDirect          440     11.04%     12.47% # Number of branches that got corrected but not yet commited. Branches get corrected by decode or after execute. Also a branch misprediction can be detected out-of-order. Therefore, a corrected branch might not end up beeing committed in case an even earlier branch was mispredicted (Count)
system.cpu.branchPred.corrected_0::CallIndirect          109      2.73%     15.20% # Number of branches that got corrected but not yet commited. Branches get corrected by decode or after execute. Also a branch misprediction can be detected out-of-order. Therefore, a corrected branch might not end up beeing committed in case an even earlier branch was mispredicted (Count)
system.cpu.branchPred.corrected_0::DirectCond         2703     67.80%     82.99% # Number of branches that got corrected but not yet commited. Branches get corrected by decode or after execute. Also a branch misprediction can be detected out-of-order. Therefore, a corrected branch might not end up beeing committed in case an even earlier branch was mispredicted (Count)
system.cpu.branchPred.corrected_0::DirectUncond          387      9.71%     92.70% # Number of branches that got corrected but not yet commited. Branches get corrected by decode or after execute. Also a branch misprediction can be detected out-of-order. Therefore, a corrected branch might not end up beeing committed in case an even earlier branch was mispredicted (Count)
system.cpu.branchPred.corrected_0::IndirectCond            0      0.00%     92.70% # Number of branches that got corrected but not yet commited. Branches get corrected by decode or after execute. Also a branch misprediction can be detected out-of-order. Therefore, a corrected branch might not end up beeing committed in case an even earlier branch was mispredicted (Count)
system.cpu.branchPred.corrected_0::IndirectUncond          291      7.30%    100.00% # Number of branches that got corrected but not yet commited. Branches get corrected by decode or after execute. Also a branch misprediction can be detected out-of-order. Therefore, a corrected branch might not end up beeing committed in case an even earlier branch was mispredicted (Count)
system.cpu.branchPred.corrected_0::total         3987                       # Number of branches that got corrected but not yet commited. Branches get corrected by decode or after execute. Also a branch misprediction can be detected out-of-order. Therefore, a corrected branch might not end up beeing committed in case an even earlier branch was mispredicted (Count)
system.cpu.branchPred.earlyResteers_0::NoBranch            0                       # Number of branches that got redirected after decode. (Count)
system.cpu.branchPred.earlyResteers_0::Return            0                       # Number of branches that got redirected after decode. (Count)
system.cpu.branchPred.earlyResteers_0::CallDirect            0                       # Number of branches that got redirected after decode. (Count)
system.cpu.branchPred.earlyResteers_0::CallIndirect            0                       # Number of branches that got redirected after decode. (Count)
system.cpu.branchPred.earlyResteers_0::DirectCond            0                       # Number of branches that got redirected after decode. (Count)
system.cpu.branchPred.earlyResteers_0::DirectUncond            0                       # Number of branches that got redirected after decode. (Count)
system.cpu.branchPred.earlyResteers_0::IndirectCond            0                       # Number of branches that got redirected after decode. (Count)
system.cpu.branchPred.earlyResteers_0::IndirectUncond            0                       # Number of branches that got redirected after decode. (Count)
system.cpu.branchPred.earlyResteers_0::total            0                       # Number of branches that got redirected after decode. (Count)
system.cpu.branchPred.committed_0::NoBranch           43      0.02%      0.02% # Number of branches finally committed  (Count)
system.cpu.branchPred.committed_0::Return        66805     23.38%     23.40% # Number of branches finally committed  (Count)
system.cpu.branchPred.committed_0::CallDirect        66675     23.34%     46.74% # Number of branches finally committed  (Count)
system.cpu.branchPred.committed_0::CallIndirect          136      0.05%     46.79% # Number of branches finally committed  (Count)
system.cpu.branchPred.committed_0::DirectCond       150365     52.63%     99.42% # Number of branches finally committed  (Count)
system.cpu.branchPred.committed_0::DirectUncond         1169      0.41%     99.83% # Number of branches finally committed  (Count)
system.cpu.branchPred.committed_0::IndirectCond            0      0.00%     99.83% # Number of branches finally committed  (Count)
system.cpu.branchPred.committed_0::IndirectUncond          484      0.17%    100.00% # Number of branches finally committed  (Count)
system.cpu.branchPred.committed_0::total       285677                       # Number of branches finally committed  (Count)
system.cpu.branchPred.mispredicted_0::NoBranch           43      1.27%      1.27% # Number of committed branches that were mispredicted. (Count)
system.cpu.branchPred.mispredicted_0::Return            0      0.00%      1.27% # Number of committed branches that were mispredicted. (Count)
system.cpu.branchPred.mispredicted_0::CallDirect          290      8.54%      9.81% # Number of committed branches that were mispredicted. (Count)
system.cpu.branchPred.mispredicted_0::CallIndirect          103      3.03%     12.84% # Number of committed branches that were mispredicted. (Count)
system.cpu.branchPred.mispredicted_0::DirectCond         2473     72.84%     85.68% # Number of committed branches that were mispredicted. (Count)
system.cpu.branchPred.mispredicted_0::DirectUncond          227      6.69%     92.37% # Number of committed branches that were mispredicted. (Count)
system.cpu.branchPred.mispredicted_0::IndirectCond            0      0.00%     92.37% # Number of committed branches that were mispredicted. (Count)
system.cpu.branchPred.mispredicted_0::IndirectUncond          259      7.63%    100.00% # Number of committed branches that were mispredicted. (Count)
system.cpu.branchPred.mispredicted_0::total         3395                       # Number of committed branches that were mispredicted. (Count)
system.cpu.branchPred.mispredictDueToPredictor_0::NoBranch           43      2.52%      2.52% # Number of committed branches that were mispredicted by the predictor. (Count)
system.cpu.branchPred.mispredictDueToPredictor_0::Return            0      0.00%      2.52% # Number of committed branches that were mispredicted by the predictor. (Count)
system.cpu.branchPred.mispredictDueToPredictor_0::CallDirect            1      0.06%      2.58% # Number of committed branches that were mispredicted by the predictor. (Count)
system.cpu.branchPred.mispredictDueToPredictor_0::CallIndirect            0      0.00%      2.58% # Number of committed branches that were mispredicted by the predictor. (Count)
system.cpu.branchPred.mispredictDueToPredictor_0::DirectCond         1663     97.37%     99.94% # Number of committed branches that were mispredicted by the predictor. (Count)
system.cpu.branchPred.mispredictDueToPredictor_0::DirectUncond            1      0.06%    100.00% # Number of committed branches that were mispredicted by the predictor. (Count)
system.cpu.branchPred.mispredictDueToPredictor_0::IndirectCond            0      0.00%    100.00% # Number of committed branches that were mispredicted by the predictor. (Count)
system.cpu.branchPred.mispredictDueToPredictor_0::IndirectUncond            0      0.00%    100.00% # Number of committed branches that were mispredicted by the predictor. (Count)
system.cpu.branchPred.mispredictDueToPredictor_0::total         1708                       # Number of committed branches that were mispredicted by the predictor. (Count)
system.cpu.branchPred.mispredictDueToBTBMiss_0::NoBranch            0      0.00%      0.00% # Number of committed branches that were mispredicted because of a BTB miss. (Count)
system.cpu.branchPred.mispredictDueToBTBMiss_0::Return            0      0.00%      0.00% # Number of committed branches that were mispredicted because of a BTB miss. (Count)
system.cpu.branchPred.mispredictDueToBTBMiss_0::CallDirect          289     17.13%     17.13% # Number of committed branches that were mispredicted because of a BTB miss. (Count)
system.cpu.branchPred.mispredictDueToBTBMiss_0::CallIndirect          103      6.11%     23.24% # Number of committed branches that were mispredicted because of a BTB miss. (Count)
system.cpu.branchPred.mispredictDueToBTBMiss_0::DirectCond          810     48.01%     71.25% # Number of committed branches that were mispredicted because of a BTB miss. (Count)
system.cpu.branchPred.mispredictDueToBTBMiss_0::DirectUncond          226     13.40%     84.65% # Number of committed branches that were mispredicted because of a BTB miss. (Count)
system.cpu.branchPred.mispredictDueToBTBMiss_0::IndirectCond            0      0.00%     84.65% # Number of committed branches that were mispredicted because of a BTB miss. (Count)
system.cpu.branchPred.mispredictDueToBTBMiss_0::IndirectUncond          259     15.35%    100.00% # Number of committed branches that were mispredicted because of a BTB miss. (Count)
system.cpu.branchPred.mispredictDueToBTBMiss_0::total         1687                       # Number of committed branches that were mispredicted because of a BTB miss. (Count)
system.cpu.branchPred.targetProvider_0::NoTarget        21546      7.23%      7.23% # The component providing the target for taken branches (Count)
system.cpu.branchPred.targetProvider_0::BTB       208741     70.06%     77.29% # The component providing the target for taken branches (Count)
system.cpu.branchPred.targetProvider_0::RAS        67341     22.60%     99.90% # The component providing the target for taken branches (Count)
system.cpu.branchPred.targetProvider_0::Indirect          305      0.10%    100.00% # The component providing the target for taken branches (Count)
system.cpu.branchPred.targetProvider_0::total       297933                       # The component providing the target for taken branches (Count)
system.cpu.branchPred.targetWrong_0::NoBranch         3181     84.69%     84.69% # Number of branches where the target was incorrect or not available at prediction time. (Count)
system.cpu.branchPred.targetWrong_0::Return          557     14.83%     99.52% # Number of branches where the target was incorrect or not available at prediction time. (Count)
system.cpu.branchPred.targetWrong_0::CallDirect            1      0.03%     99.55% # Number of branches where the target was incorrect or not available at prediction time. (Count)
system.cpu.branchPred.targetWrong_0::CallIndirect           17      0.45%    100.00% # Number of branches where the target was incorrect or not available at prediction time. (Count)
system.cpu.branchPred.targetWrong_0::DirectCond            0      0.00%    100.00% # Number of branches where the target was incorrect or not available at prediction time. (Count)
system.cpu.branchPred.targetWrong_0::DirectUncond            0      0.00%    100.00% # Number of branches where the target was incorrect or not available at prediction time. (Count)
system.cpu.branchPred.targetWrong_0::IndirectCond            0      0.00%    100.00% # Number of branches where the target was incorrect or not available at prediction time. (Count)
system.cpu.branchPred.targetWrong_0::IndirectUncond            0      0.00%    100.00% # Number of branches where the target was incorrect or not available at prediction time. (Count)
system.cpu.branchPred.targetWrong_0::total         3756                       # Number of branches where the target was incorrect or not available at prediction time. (Count)
system.cpu.branchPred.condPredicted            159587                       # Number of conditional branches predicted (Count)
system.cpu.branchPred.condPredictedTaken       141436                       # Number of conditional branches predicted as taken (Count)
system.cpu.branchPred.condIncorrect              3987                       # Number of conditional branches incorrect (Count)
system.cpu.branchPred.predTakenBTBMiss           1068                       # Number of branches predicted taken but missed in BTB (Count)
system.cpu.branchPred.BTBLookups               297933                       # Number of BTB lookups (Count)
system.cpu.branchPred.BTBUpdates                 2951                       # Number of BTB updates (Count)
system.cpu.branchPred.BTBHits                  216157                       # Number of BTB hits (Count)
system.cpu.branchPred.BTBHitRatio            0.725522                       # BTB Hit Ratio (Ratio)
system.cpu.branchPred.BTBMispredicted            1725                       # Number BTB mispredictions. No target found or target wrong (Count)
system.cpu.branchPred.indirectLookups            1424                       # Number of indirect predictor lookups. (Count)
system.cpu.branchPred.indirectHits                305                       # Number of indirect target hits. (Count)
system.cpu.branchPred.indirectMisses             1119                       # Number of indirect misses. (Count)
system.cpu.branchPred.indirectMispredicted            0                       # Number of mispredicted indirect branches. (Count)
system.cpu.branchPred.btb.lookups::NoBranch          350      0.12%      0.12% # Number of BTB lookups (Count)
system.cpu.branchPred.btb.lookups::Return        67341     22.60%     22.72% # Number of BTB lookups (Count)
system.cpu.branchPred.btb.lookups::CallDirect        67452     22.64%     45.36% # Number of BTB lookups (Count)
system.cpu.branchPred.btb.lookups::CallIndirect          186      0.06%     45.42% # Number of BTB lookups (Count)
system.cpu.branchPred.btb.lookups::DirectCond       159237     53.45%     98.87% # Number of BTB lookups (Count)
system.cpu.branchPred.btb.lookups::DirectUncond         2129      0.71%     99.58% # Number of BTB lookups (Count)
system.cpu.branchPred.btb.lookups::IndirectCond            0      0.00%     99.58% # Number of BTB lookups (Count)
system.cpu.branchPred.btb.lookups::IndirectUncond         1238      0.42%    100.00% # Number of BTB lookups (Count)
system.cpu.branchPred.btb.lookups::total       297933                       # Number of BTB lookups (Count)
system.cpu.branchPred.btb.misses::NoBranch          130      0.16%      0.16% # Number of BTB misses (Count)
system.cpu.branchPred.btb.misses::Return        67337     82.34%     82.50% # Number of BTB misses (Count)
system.cpu.branchPred.btb.misses::CallDirect          555      0.68%     83.18% # Number of BTB misses (Count)
system.cpu.branchPred.btb.misses::CallIndirect          186      0.23%     83.41% # Number of BTB misses (Count)
system.cpu.branchPred.btb.misses::DirectCond        11858     14.50%     97.91% # Number of BTB misses (Count)
system.cpu.branchPred.btb.misses::DirectUncond          472      0.58%     98.49% # Number of BTB misses (Count)
system.cpu.branchPred.btb.misses::IndirectCond            0      0.00%     98.49% # Number of BTB misses (Count)
system.cpu.branchPred.btb.misses::IndirectUncond         1238      1.51%    100.00% # Number of BTB misses (Count)
system.cpu.branchPred.btb.misses::total         81776                       # Number of BTB misses (Count)
system.cpu.branchPred.btb.updates::NoBranch            0      0.00%      0.00% # Number of BTB updates (Count)
system.cpu.branchPred.btb.updates::Return            0      0.00%      0.00% # Number of BTB updates (Count)
system.cpu.branchPred.btb.updates::CallDirect          440     14.91%     14.91% # Number of BTB updates (Count)
system.cpu.branchPred.btb.updates::CallIndirect            0      0.00%     14.91% # Number of BTB updates (Count)
system.cpu.branchPred.btb.updates::DirectCond         2124     71.98%     86.89% # Number of BTB updates (Count)
system.cpu.branchPred.btb.updates::DirectUncond          387     13.11%    100.00% # Number of BTB updates (Count)
system.cpu.branchPred.btb.updates::IndirectCond            0      0.00%    100.00% # Number of BTB updates (Count)
system.cpu.branchPred.btb.updates::IndirectUncond            0      0.00%    100.00% # Number of BTB updates (Count)
system.cpu.branchPred.btb.updates::total         2951                       # Number of BTB updates (Count)
system.cpu.branchPred.btb.mispredict::NoBranch            0      0.00%      0.00% # Number of BTB mispredictions. No target found or target wrong. (Count)
system.cpu.branchPred.btb.mispredict::Return            0      0.00%      0.00% # Number of BTB mispredictions. No target found or target wrong. (Count)
system.cpu.branchPred.btb.mispredict::CallDirect          440     14.91%     14.91% # Number of BTB mispredictions. No target found or target wrong. (Count)
system.cpu.branchPred.btb.mispredict::CallIndirect            0      0.00%     14.91% # Number of BTB mispredictions. No target found or target wrong. (Count)
system.cpu.branchPred.btb.mispredict::DirectCond         2124     71.98%     86.89% # Number of BTB mispredictions. No target found or target wrong. (Count)
system.cpu.branchPred.btb.mispredict::DirectUncond          387     13.11%    100.00% # Number of BTB mispredictions. No target found or target wrong. (Count)
system.cpu.branchPred.btb.mispredict::IndirectCond            0      0.00%    100.00% # Number of BTB mispredictions. No target found or target wrong. (Count)
system.cpu.branchPred.btb.mispredict::IndirectUncond            0      0.00%    100.00% # Number of BTB mispredictions. No target found or target wrong. (Count)
system.cpu.branchPred.btb.mispredict::total         2951                       # Number of BTB mispredictions. No target found or target wrong. (Count)
system.cpu.branchPred.btb.power_state.pwrStateResidencyTicks::UNDEFINED   2046433500                       # Cumulative time (in ticks) in various power states (Tick)
system.cpu.branchPred.indirectBranchPred.lookups         1424                       # Number of lookups (Count)
system.cpu.branchPred.indirectBranchPred.hits          305                       # Number of hits of a tag (Count)
system.cpu.branchPred.indirectBranchPred.misses         1119                       # Number of misses (Count)
system.cpu.branchPred.indirectBranchPred.targetRecords          400                       # Number of targets that where recorded/installed in the cache (Count)
system.cpu.branchPred.indirectBranchPred.indirectRecords         1824                       # Number of indirect branches/calls recorded in the indirect hist (Count)
system.cpu.branchPred.indirectBranchPred.speculativeOverflows            4                       # Number of times more than the allowed capacity for speculative branches/calls where in flight and destroy the path history (Count)
system.cpu.branchPred.ras.pushes                68174                       # Number of times a PC was pushed onto the RAS (Count)
system.cpu.branchPred.ras.pops                  68168                       # Number of times a PC was poped from the RAS (Count)
system.cpu.branchPred.ras.squashes               1363                       # Number of times the stack operation was squashed due to wrong speculation. (Count)
system.cpu.branchPred.ras.used                  66805                       # Number of times the RAS is the provider (Count)
system.cpu.branchPred.ras.correct               66805                       # Number of times the RAS is the provider and the prediction is correct (Count)
system.cpu.branchPred.ras.incorrect                 0                       # Number of times the RAS is the provider and the prediction is wrong (Count)
system.cpu.commit.commitSquashedInsts           68547                       # The number of squashed insts skipped by commit (Count)
system.cpu.commit.commitNonSpecStalls             384                       # The number of times commit has been forced to stall to communicate backwards (Count)
system.cpu.commit.branchMispredicts              3358                       # The number of times a branch was mispredicted (Count)
system.cpu.commit.numCommittedDist::samples      3986661                       # Number of insts commited each cycle (Count)
system.cpu.commit.numCommittedDist::mean     1.778023                       # Number of insts commited each cycle (Count)
system.cpu.commit.numCommittedDist::stdev     1.503058                       # Number of insts commited each cycle (Count)
system.cpu.commit.numCommittedDist::underflows            0      0.00%      0.00% # Number of insts commited each cycle (Count)
system.cpu.commit.numCommittedDist::0          885137     22.20%     22.20% # Number of insts commited each cycle (Count)
system.cpu.commit.numCommittedDist::1         1450043     36.37%     58.57% # Number of insts commited each cycle (Count)
system.cpu.commit.numCommittedDist::2          254647      6.39%     64.96% # Number of insts commited each cycle (Count)
system.cpu.commit.numCommittedDist::3          458299     11.50%     76.46% # Number of insts commited each cycle (Count)
system.cpu.commit.numCommittedDist::4          938535     23.54%    100.00% # Number of insts commited each cycle (Count)
system.cpu.commit.numCommittedDist::overflows            0      0.00%    100.00% # Number of insts commited each cycle (Count)
system.cpu.commit.numCommittedDist::min_value            0                       # Number of insts commited each cycle (Count)
system.cpu.commit.numCommittedDist::max_value            4                       # Number of insts commited each cycle (Count)
system.cpu.commit.numCommittedDist::total      3986661                       # Number of insts commited each cycle (Count)
system.cpu.commit.amos                              0                       # Number of atomic instructions committed (Count)
system.cpu.commit.membars                         142                       # Number of memory barriers committed (Count)
system.cpu.commit.functionCalls                 66811                       # Number of function calls committed. (Count)
system.cpu.commit.committedInstType_0::No_OpClass          716      0.01%      0.01% # Class of committed instruction (Count)
system.cpu.commit.committedInstType_0::IntAlu      2992796     42.22%     42.23% # Class of committed instruction (Count)
system.cpu.commit.committedInstType_0::IntMult          773      0.01%     42.24% # Class of committed instruction (Count)
system.cpu.commit.committedInstType_0::IntDiv         1540      0.02%     42.26% # Class of committed instruction (Count)
system.cpu.commit.committedInstType_0::FloatAdd       197185      2.78%     45.05% # Class of committed instruction (Count)
system.cpu.commit.committedInstType_0::FloatCmp            0      0.00%     45.05% # Class of committed instruction (Count)
system.cpu.commit.committedInstType_0::FloatCvt          304      0.00%     45.05% # Class of committed instruction (Count)
system.cpu.commit.committedInstType_0::FloatMult            0      0.00%     45.05% # Class of committed instruction (Count)
system.cpu.commit.committedInstType_0::FloatMultAcc            0      0.00%     45.05% # Class of committed instruction (Count)
system.cpu.commit.committedInstType_0::FloatDiv            0      0.00%     45.05% # Class of committed instruction (Count)
system.cpu.commit.committedInstType_0::FloatMisc            0      0.00%     45.05% # Class of committed instruction (Count)
system.cpu.commit.committedInstType_0::FloatSqrt            0      0.00%     45.05% # Class of committed instruction (Count)
system.cpu.commit.committedInstType_0::SimdAdd          480      0.01%     45.06% # Class of committed instruction (Count)
system.cpu.commit.committedInstType_0::SimdAddAcc            0      0.00%     45.06% # Class of committed instruction (Count)
system.cpu.commit.committedInstType_0::SimdAlu       558333      7.88%     52.93% # Class of committed instruction (Count)
system.cpu.commit.committedInstType_0::SimdCmp            0      0.00%     52.93% # Class of committed instruction (Count)
system.cpu.commit.committedInstType_0::SimdCvt         1270      0.02%     52.95% # Class of committed instruction (Count)
system.cpu.commit.committedInstType_0::SimdMisc       542004      7.65%     60.60% # Class of committed instruction (Count)
system.cpu.commit.committedInstType_0::SimdMult            0      0.00%     60.60% # Class of committed instruction (Count)
system.cpu.commit.committedInstType_0::SimdMultAcc            0      0.00%     60.60% # Class of committed instruction (Count)
system.cpu.commit.committedInstType_0::SimdMatMultAcc            0      0.00%     60.60% # Class of committed instruction (Count)
system.cpu.commit.committedInstType_0::SimdShift          346      0.00%     60.60% # Class of committed instruction (Count)
system.cpu.commit.committedInstType_0::SimdShiftAcc            0      0.00%     60.60% # Class of committed instruction (Count)
system.cpu.commit.committedInstType_0::SimdDiv            0      0.00%     60.60% # Class of committed instruction (Count)
system.cpu.commit.committedInstType_0::SimdSqrt            0      0.00%     60.60% # Class of committed instruction (Count)
system.cpu.commit.committedInstType_0::SimdFloatAdd       442386      6.24%     66.84% # Class of committed instruction (Count)
system.cpu.commit.committedInstType_0::SimdFloatAlu            0      0.00%     66.84% # Class of committed instruction (Count)
system.cpu.commit.committedInstType_0::SimdFloatCmp            0      0.00%     66.84% # Class of committed instruction (Count)
system.cpu.commit.committedInstType_0::SimdFloatCvt       557085      7.86%     74.70% # Class of committed instruction (Count)
system.cpu.commit.committedInstType_0::SimdFloatDiv            0      0.00%     74.70% # Class of committed instruction (Count)
system.cpu.commit.committedInstType_0::SimdFloatMisc            0      0.00%     74.70% # Class of committed instruction (Count)
system.cpu.commit.committedInstType_0::SimdFloatMult       884761     12.48%     87.18% # Class of committed instruction (Count)
system.cpu.commit.committedInstType_0::SimdFloatMultAcc            0      0.00%     87.18% # Class of committed instruction (Count)
system.cpu.commit.committedInstType_0::SimdFloatMatMultAcc            0      0.00%     87.18% # Class of committed instruction (Count)
system.cpu.commit.committedInstType_0::SimdFloatSqrt            0      0.00%     87.18% # Class of committed instruction (Count)
system.cpu.commit.committedInstType_0::SimdReduceAdd            0      0.00%     87.18% # Class of committed instruction (Count)
system.cpu.commit.committedInstType_0::SimdReduceAlu            0      0.00%     87.18% # Class of committed instruction (Count)
system.cpu.commit.committedInstType_0::SimdReduceCmp            0      0.00%     87.18% # Class of committed instruction (Count)
system.cpu.commit.committedInstType_0::SimdFloatReduceAdd            0      0.00%     87.18% # Class of committed instruction (Count)
system.cpu.commit.committedInstType_0::SimdFloatReduceCmp            0      0.00%     87.18% # Class of committed instruction (Count)
system.cpu.commit.committedInstType_0::SimdAes            0      0.00%     87.18% # Class of committed instruction (Count)
system.cpu.commit.committedInstType_0::SimdAesMix            0      0.00%     87.18% # Class of committed instruction (Count)
system.cpu.commit.committedInstType_0::SimdSha1Hash            0      0.00%     87.18% # Class of committed instruction (Count)
system.cpu.commit.committedInstType_0::SimdSha1Hash2            0      0.00%     87.18% # Class of committed instruction (Count)
system.cpu.commit.committedInstType_0::SimdSha256Hash            0      0.00%     87.18% # Class of committed instruction (Count)
system.cpu.commit.committedInstType_0::SimdSha256Hash2            0      0.00%     87.18% # Class of committed instruction (Count)
system.cpu.commit.committedInstType_0::SimdShaSigma2            0      0.00%     87.18% # Class of committed instruction (Count)
system.cpu.commit.committedInstType_0::SimdShaSigma3            0      0.00%     87.18% # Class of committed instruction (Count)
system.cpu.commit.committedInstType_0::SimdPredAlu            0      0.00%     87.18% # Class of committed instruction (Count)
system.cpu.commit.committedInstType_0::Matrix            0      0.00%     87.18% # Class of committed instruction (Count)
system.cpu.commit.committedInstType_0::MatrixMov            0      0.00%     87.18% # Class of committed instruction (Count)
system.cpu.commit.committedInstType_0::MatrixOP            0      0.00%     87.18% # Class of committed instruction (Count)
system.cpu.commit.committedInstType_0::MemRead       363697      5.13%     92.32% # Class of committed instruction (Count)
system.cpu.commit.committedInstType_0::MemWrite       262277      3.70%     96.02% # Class of committed instruction (Count)
system.cpu.commit.committedInstType_0::FloatMemRead       280587      3.96%     99.97% # Class of committed instruction (Count)
system.cpu.commit.committedInstType_0::FloatMemWrite         1834      0.03%    100.00% # Class of committed instruction (Count)
system.cpu.commit.committedInstType_0::IprAccess            0      0.00%    100.00% # Class of committed instruction (Count)
system.cpu.commit.committedInstType_0::InstPrefetch            0      0.00%    100.00% # Class of committed instruction (Count)
system.cpu.commit.committedInstType_0::SimdUnitStrideLoad            0      0.00%    100.00% # Class of committed instruction (Count)
system.cpu.commit.committedInstType_0::SimdUnitStrideStore            0      0.00%    100.00% # Class of committed instruction (Count)
system.cpu.commit.committedInstType_0::SimdUnitStrideMaskLoad            0      0.00%    100.00% # Class of committed instruction (Count)
system.cpu.commit.committedInstType_0::SimdUnitStrideMaskStore            0      0.00%    100.00% # Class of committed instruction (Count)
system.cpu.commit.committedInstType_0::SimdStridedLoad            0      0.00%    100.00% # Class of committed instruction (Count)
system.cpu.commit.committedInstType_0::SimdStridedStore            0      0.00%    100.00% # Class of committed instruction (Count)
system.cpu.commit.committedInstType_0::SimdIndexedLoad            0      0.00%    100.00% # Class of committed instruction (Count)
system.cpu.commit.committedInstType_0::SimdIndexedStore            0      0.00%    100.00% # Class of committed instruction (Count)
system.cpu.commit.committedInstType_0::SimdWholeRegisterLoad            0      0.00%    100.00% # Class of committed instruction (Count)
system.cpu.commit.committedInstType_0::SimdWholeRegisterStore            0      0.00%    100.00% # Class of committed instruction (Count)
system.cpu.commit.committedInstType_0::SimdUnitStrideFaultOnlyFirstLoad            0      0.00%    100.00% # Class of committed instruction (Count)
system.cpu.commit.committedInstType_0::SimdUnitStrideSegmentedLoad            0      0.00%    100.00% # Class of committed instruction (Count)
system.cpu.commit.committedInstType_0::SimdUnitStrideSegmentedStore            0      0.00%    100.00% # Class of committed instruction (Count)
system.cpu.commit.committedInstType_0::SimdExt            0      0.00%    100.00% # Class of committed instruction (Count)
system.cpu.commit.committedInstType_0::SimdFloatExt            0      0.00%    100.00% # Class of committed instruction (Count)
system.cpu.commit.committedInstType_0::SimdConfig            0      0.00%    100.00% # Class of committed instruction (Count)
system.cpu.commit.committedInstType_0::total      7088374                       # Class of committed instruction (Count)
system.cpu.commit.commitEligibleSamples        938535                       # number cycles where commit BW limit reached (Cycle)
system.cpu.commitStats0.numInsts              4063056                       # Number of instructions committed (thread level) (Count)
system.cpu.commitStats0.numOps                7088374                       # Number of ops (including micro ops) committed (thread level) (Count)
system.cpu.commitStats0.numInstsNotNOP        4063056                       # Number of instructions committed excluding NOPs or prefetches (Count)
system.cpu.commitStats0.numOpsNotNOP          7088374                       # Number of Ops (including micro ops) Simulated (Count)
system.cpu.commitStats0.cpi                  1.007337                       # CPI: cycles per instruction (thread level) ((Cycle/Count))
system.cpu.commitStats0.ipc                  0.992716                       # IPC: instructions per cycle (thread level) ((Count/Cycle))
system.cpu.commitStats0.numMemRefs             908395                       # Number of memory references committed (Count)
system.cpu.commitStats0.numFpInsts            4319027                       # Number of float instructions (Count)
system.cpu.commitStats0.numIntInsts           3591888                       # Number of integer instructions (Count)
system.cpu.commitStats0.numLoadInsts           644284                       # Number of load instructions (Count)
system.cpu.commitStats0.numStoreInsts          264111                       # Number of store instructions (Count)
system.cpu.commitStats0.numVecInsts                 0                       # Number of vector instructions (Count)
system.cpu.commitStats0.committedInstType::No_OpClass          716      0.01%      0.01% # Class of committed instruction. (Count)
system.cpu.commitStats0.committedInstType::IntAlu      2992796     42.22%     42.23% # Class of committed instruction. (Count)
system.cpu.commitStats0.committedInstType::IntMult          773      0.01%     42.24% # Class of committed instruction. (Count)
system.cpu.commitStats0.committedInstType::IntDiv         1540      0.02%     42.26% # Class of committed instruction. (Count)
system.cpu.commitStats0.committedInstType::FloatAdd       197185      2.78%     45.05% # Class of committed instruction. (Count)
system.cpu.commitStats0.committedInstType::FloatCmp            0      0.00%     45.05% # Class of committed instruction. (Count)
system.cpu.commitStats0.committedInstType::FloatCvt          304      0.00%     45.05% # Class of committed instruction. (Count)
system.cpu.commitStats0.committedInstType::FloatMult            0      0.00%     45.05% # Class of committed instruction. (Count)
system.cpu.commitStats0.committedInstType::FloatMultAcc            0      0.00%     45.05% # Class of committed instruction. (Count)
system.cpu.commitStats0.committedInstType::FloatDiv            0      0.00%     45.05% # Class of committed instruction. (Count)
system.cpu.commitStats0.committedInstType::FloatMisc            0      0.00%     45.05% # Class of committed instruction. (Count)
system.cpu.commitStats0.committedInstType::FloatSqrt            0      0.00%     45.05% # Class of committed instruction. (Count)
system.cpu.commitStats0.committedInstType::SimdAdd          480      0.01%     45.06% # Class of committed instruction. (Count)
system.cpu.commitStats0.committedInstType::SimdAddAcc            0      0.00%     45.06% # Class of committed instruction. (Count)
system.cpu.commitStats0.committedInstType::SimdAlu       558333      7.88%     52.93% # Class of committed instruction. (Count)
system.cpu.commitStats0.committedInstType::SimdCmp            0      0.00%     52.93% # Class of committed instruction. (Count)
system.cpu.commitStats0.committedInstType::SimdCvt         1270      0.02%     52.95% # Class of committed instruction. (Count)
system.cpu.commitStats0.committedInstType::SimdMisc       542004      7.65%     60.60% # Class of committed instruction. (Count)
system.cpu.commitStats0.committedInstType::SimdMult            0      0.00%     60.60% # Class of committed instruction. (Count)
system.cpu.commitStats0.committedInstType::SimdMultAcc            0      0.00%     60.60% # Class of committed instruction. (Count)
system.cpu.commitStats0.committedInstType::SimdMatMultAcc            0      0.00%     60.60% # Class of committed instruction. (Count)
system.cpu.commitStats0.committedInstType::SimdShift          346      0.00%     60.60% # Class of committed instruction. (Count)
system.cpu.commitStats0.committedInstType::SimdShiftAcc            0      0.00%     60.60% # Class of committed instruction. (Count)
system.cpu.commitStats0.committedInstType::SimdDiv            0      0.00%     60.60% # Class of committed instruction. (Count)
system.cpu.commitStats0.committedInstType::SimdSqrt            0      0.00%     60.60% # Class of committed instruction. (Count)
system.cpu.commitStats0.committedInstType::SimdFloatAdd       442386      6.24%     66.84% # Class of committed instruction. (Count)
system.cpu.commitStats0.committedInstType::SimdFloatAlu            0      0.00%     66.84% # Class of committed instruction. (Count)
system.cpu.commitStats0.committedInstType::SimdFloatCmp            0      0.00%     66.84% # Class of committed instruction. (Count)
system.cpu.commitStats0.committedInstType::SimdFloatCvt       557085      7.86%     74.70% # Class of committed instruction. (Count)
system.cpu.commitStats0.committedInstType::SimdFloatDiv            0      0.00%     74.70% # Class of committed instruction. (Count)
system.cpu.commitStats0.committedInstType::SimdFloatMisc            0      0.00%     74.70% # Class of committed instruction. (Count)
system.cpu.commitStats0.committedInstType::SimdFloatMult       884761     12.48%     87.18% # Class of committed instruction. (Count)
system.cpu.commitStats0.committedInstType::SimdFloatMultAcc            0      0.00%     87.18% # Class of committed instruction. (Count)
system.cpu.commitStats0.committedInstType::SimdFloatMatMultAcc            0      0.00%     87.18% # Class of committed instruction. (Count)
system.cpu.commitStats0.committedInstType::SimdFloatSqrt            0      0.00%     87.18% # Class of committed instruction. (Count)
system.cpu.commitStats0.committedInstType::SimdReduceAdd            0      0.00%     87.18% # Class of committed instruction. (Count)
system.cpu.commitStats0.committedInstType::SimdReduceAlu            0      0.00%     87.18% # Class of committed instruction. (Count)
system.cpu.commitStats0.committedInstType::SimdReduceCmp            0      0.00%     87.18% # Class of committed instruction. (Count)
system.cpu.commitStats0.committedInstType::SimdFloatReduceAdd            0      0.00%     87.18% # Class of committed instruction. (Count)
system.cpu.commitStats0.committedInstType::SimdFloatReduceCmp            0      0.00%     87.18% # Class of committed instruction. (Count)
system.cpu.commitStats0.committedInstType::SimdAes            0      0.00%     87.18% # Class of committed instruction. (Count)
system.cpu.commitStats0.committedInstType::SimdAesMix            0      0.00%     87.18% # Class of committed instruction. (Count)
system.cpu.commitStats0.committedInstType::SimdSha1Hash            0      0.00%     87.18% # Class of committed instruction. (Count)
system.cpu.commitStats0.committedInstType::SimdSha1Hash2            0      0.00%     87.18% # Class of committed instruction. (Count)
system.cpu.commitStats0.committedInstType::SimdSha256Hash            0      0.00%     87.18% # Class of committed instruction. (Count)
system.cpu.commitStats0.committedInstType::SimdSha256Hash2            0      0.00%     87.18% # Class of committed instruction. (Count)
system.cpu.commitStats0.committedInstType::SimdShaSigma2            0      0.00%     87.18% # Class of committed instruction. (Count)
system.cpu.commitStats0.committedInstType::SimdShaSigma3            0      0.00%     87.18% # Class of committed instruction. (Count)
system.cpu.commitStats0.committedInstType::SimdPredAlu            0      0.00%     87.18% # Class of committed instruction. (Count)
system.cpu.commitStats0.committedInstType::Matrix            0      0.00%     87.18% # Class of committed instruction. (Count)
system.cpu.commitStats0.committedInstType::MatrixMov            0      0.00%     87.18% # Class of committed instruction. (Count)
system.cpu.commitStats0.committedInstType::MatrixOP            0      0.00%     87.18% # Class of committed instruction. (Count)
system.cpu.commitStats0.committedInstType::MemRead       363697      5.13%     92.32% # Class of committed instruction. (Count)
system.cpu.commitStats0.committedInstType::MemWrite       262277      3.70%     96.02% # Class of committed instruction. (Count)
system.cpu.commitStats0.committedInstType::FloatMemRead       280587      3.96%     99.97% # Class of committed instruction. (Count)
system.cpu.commitStats0.committedInstType::FloatMemWrite         1834      0.03%    100.00% # Class of committed instruction. (Count)
system.cpu.commitStats0.committedInstType::IprAccess            0      0.00%    100.00% # Class of committed instruction. (Count)
system.cpu.commitStats0.committedInstType::InstPrefetch            0      0.00%    100.00% # Class of committed instruction. (Count)
system.cpu.commitStats0.committedInstType::SimdUnitStrideLoad            0      0.00%    100.00% # Class of committed instruction. (Count)
system.cpu.commitStats0.committedInstType::SimdUnitStrideStore            0      0.00%    100.00% # Class of committed instruction. (Count)
system.cpu.commitStats0.committedInstType::SimdUnitStrideMaskLoad            0      0.00%    100.00% # Class of committed instruction. (Count)
system.cpu.commitStats0.committedInstType::SimdUnitStrideMaskStore            0      0.00%    100.00% # Class of committed instruction. (Count)
system.cpu.commitStats0.committedInstType::SimdStridedLoad            0      0.00%    100.00% # Class of committed instruction. (Count)
system.cpu.commitStats0.committedInstType::SimdStridedStore            0      0.00%    100.00% # Class of committed instruction. (Count)
system.cpu.commitStats0.committedInstType::SimdIndexedLoad            0      0.00%    100.00% # Class of committed instruction. (Count)
system.cpu.commitStats0.committedInstType::SimdIndexedStore            0      0.00%    100.00% # Class of committed instruction. (Count)
system.cpu.commitStats0.committedInstType::SimdWholeRegisterLoad            0      0.00%    100.00% # Class of committed instruction. (Count)
system.cpu.commitStats0.committedInstType::SimdWholeRegisterStore            0      0.00%    100.00% # Class of committed instruction. (Count)
system.cpu.commitStats0.committedInstType::SimdUnitStrideFaultOnlyFirstLoad            0      0.00%    100.00% # Class of committed instruction. (Count)
system.cpu.commitStats0.committedInstType::SimdUnitStrideSegmentedLoad            0      0.00%    100.00% # Class of committed instruction. (Count)
system.cpu.commitStats0.committedInstType::SimdUnitStrideSegmentedStore            0      0.00%    100.00% # Class of committed instruction. (Count)
system.cpu.commitStats0.committedInstType::SimdExt            0      0.00%    100.00% # Class of committed instruction. (Count)
system.cpu.commitStats0.committedInstType::SimdFloatExt            0      0.00%    100.00% # Class of committed instruction. (Count)
system.cpu.commitStats0.committedInstType::SimdConfig            0      0.00%    100.00% # Class of committed instruction. (Count)
system.cpu.commitStats0.committedInstType::total      7088374                       # Class of committed instruction. (Count)
system.cpu.commitStats0.committedControl::IsControl       285677                       # Class of control type instructions committed (Count)
system.cpu.commitStats0.committedControl::IsDirectControl       218209                       # Class of control type instructions committed (Count)
system.cpu.commitStats0.committedControl::IsIndirectControl        67425                       # Class of control type instructions committed (Count)
system.cpu.commitStats0.committedControl::IsCondControl       150365                       # Class of control type instructions committed (Count)
system.cpu.commitStats0.committedControl::IsUncondControl       135269                       # Class of control type instructions committed (Count)
system.cpu.commitStats0.committedControl::IsCall        66811                       # Class of control type instructions committed (Count)
system.cpu.commitStats0.committedControl::IsReturn        66805                       # Class of control type instructions committed (Count)
system.cpu.dcache.demandHits::cpu.data         718200                       # number of demand (read+write) hits (Count)
system.cpu.dcache.demandHits::total            718200                       # number of demand (read+write) hits (Count)
system.cpu.dcache.overallHits::cpu.data        718200                       # number of overall hits (Count)
system.cpu.dcache.overallHits::total           718200                       # number of overall hits (Count)
system.cpu.dcache.demandMisses::cpu.data       123652                       # number of demand (read+write) misses (Count)
system.cpu.dcache.demandMisses::total          123652                       # number of demand (read+write) misses (Count)
system.cpu.dcache.overallMisses::cpu.data       123652                       # number of overall misses (Count)
system.cpu.dcache.overallMisses::total         123652                       # number of overall misses (Count)
system.cpu.dcache.demandMissLatency::cpu.data   1151140997                       # number of demand (read+write) miss ticks (Tick)
system.cpu.dcache.demandMissLatency::total   1151140997                       # number of demand (read+write) miss ticks (Tick)
system.cpu.dcache.overallMissLatency::cpu.data   1151140997                       # number of overall miss ticks (Tick)
system.cpu.dcache.overallMissLatency::total   1151140997                       # number of overall miss ticks (Tick)
[...]
system.mem_ctrl.requestorReadAvgLat::cpu.inst     25799.50                       # Per-requestor read average memory access latency ((Tick/Count))
system.mem_ctrl.requestorReadAvgLat::cpu.data     25147.00                       # Per-requestor read average memory access latency ((Tick/Count))
system.mem_ctrl.dram.bytesRead::cpu.inst       101504                       # Number of bytes read from this memory (Byte)
system.mem_ctrl.dram.bytesRead::cpu.data       394880                       # Number of bytes read from this memory (Byte)
system.mem_ctrl.dram.bytesRead::total          496384                       # Number of bytes read from this memory (Byte)
system.mem_ctrl.dram.bytesInstRead::cpu.inst       101504                       # Number of instructions bytes read from this memory (Byte)
system.mem_ctrl.dram.bytesInstRead::total       101504                       # Number of instructions bytes read from this memory (Byte)
system.mem_ctrl.dram.numReads::cpu.inst          1586                       # Number of read requests responded to by this memory (Count)
system.mem_ctrl.dram.numReads::cpu.data          6170                       # Number of read requests responded to by this memory (Count)
system.mem_ctrl.dram.numReads::total             7756                       # Number of read requests responded to by this memory (Count)
system.mem_ctrl.dram.bwRead::cpu.inst        49600439                       # Total read bandwidth from this memory ((Byte/Second))
system.mem_ctrl.dram.bwRead::cpu.data       192960094                       # Total read bandwidth from this memory ((Byte/Second))
system.mem_ctrl.dram.bwRead::total          242560533                       # Total read bandwidth from this memory ((Byte/Second))
system.mem_ctrl.dram.bwInstRead::cpu.inst     49600439                       # Instruction read bandwidth from this memory ((Byte/Second))
system.mem_ctrl.dram.bwInstRead::total       49600439                       # Instruction read bandwidth from this memory ((Byte/Second))
system.mem_ctrl.dram.bwTotal::cpu.inst       49600439                       # Total bandwidth to/from this memory ((Byte/Second))
system.mem_ctrl.dram.bwTotal::cpu.data      192960094                       # Total bandwidth to/from this memory ((Byte/Second))
system.mem_ctrl.dram.bwTotal::total         242560533                       # Total bandwidth to/from this memory ((Byte/Second))
system.mem_ctrl.dram.readBursts                  7756                       # Number of DRAM read bursts (Count)
system.mem_ctrl.dram.writeBursts                    0                       # Number of DRAM write bursts (Count)
system.mem_ctrl.dram.perBankRdBursts::0           514                       # Per bank write bursts (Count)
system.mem_ctrl.dram.perBankRdBursts::1           457                       # Per bank write bursts (Count)
system.mem_ctrl.dram.perBankRdBursts::2           464                       # Per bank write bursts (Count)
system.mem_ctrl.dram.perBankRdBursts::3           422                       # Per bank write bursts (Count)
system.mem_ctrl.dram.perBankRdBursts::4           442                       # Per bank write bursts (Count)
system.mem_ctrl.dram.perBankRdBursts::5           462                       # Per bank write bursts (Count)
system.mem_ctrl.dram.perBankRdBursts::6           482                       # Per bank write bursts (Count)
system.mem_ctrl.dram.perBankRdBursts::7           472                       # Per bank write bursts (Count)
system.mem_ctrl.dram.perBankRdBursts::8           527                       # Per bank write bursts (Count)
system.mem_ctrl.dram.perBankRdBursts::9           531                       # Per bank write bursts (Count)
system.mem_ctrl.dram.perBankRdBursts::10          572                       # Per bank write bursts (Count)
system.mem_ctrl.dram.perBankRdBursts::11          604                       # Per bank write bursts (Count)
system.mem_ctrl.dram.perBankRdBursts::12          449                       # Per bank write bursts (Count)
system.mem_ctrl.dram.perBankRdBursts::13          444                       # Per bank write bursts (Count)
system.mem_ctrl.dram.perBankRdBursts::14          437                       # Per bank write bursts (Count)
system.mem_ctrl.dram.perBankRdBursts::15          477                       # Per bank write bursts (Count)
system.mem_ctrl.dram.perBankWrBursts::0             0                       # Per bank write bursts (Count)
system.mem_ctrl.dram.perBankWrBursts::1             0                       # Per bank write bursts (Count)
system.mem_ctrl.dram.perBankWrBursts::2             0                       # Per bank write bursts (Count)
system.mem_ctrl.dram.perBankWrBursts::3             0                       # Per bank write bursts (Count)
system.mem_ctrl.dram.perBankWrBursts::4             0                       # Per bank write bursts (Count)
system.mem_ctrl.dram.perBankWrBursts::5             0                       # Per bank write bursts (Count)
system.mem_ctrl.dram.perBankWrBursts::6             0                       # Per bank write bursts (Count)
system.mem_ctrl.dram.perBankWrBursts::7             0                       # Per bank write bursts (Count)
system.mem_ctrl.dram.perBankWrBursts::8             0                       # Per bank write bursts (Count)
system.mem_ctrl.dram.perBankWrBursts::9             0                       # Per bank write bursts (Count)
system.mem_ctrl.dram.perBankWrBursts::10            0                       # Per bank write bursts (Count)
system.mem_ctrl.dram.perBankWrBursts::11            0                       # Per bank write bursts (Count)
system.mem_ctrl.dram.perBankWrBursts::12            0                       # Per bank write bursts (Count)
system.mem_ctrl.dram.perBankWrBursts::13            0                       # Per bank write bursts (Count)
system.mem_ctrl.dram.perBankWrBursts::14            0                       # Per bank write bursts (Count)
system.mem_ctrl.dram.perBankWrBursts::15            0                       # Per bank write bursts (Count)
system.mem_ctrl.dram.totQLat                 50650000                       # Total ticks spent queuing (Tick)
system.mem_ctrl.dram.totBusLat               38780000                       # Total ticks spent in databus transfers (Tick)
system.mem_ctrl.dram.totMemAccLat           196075000                       # Total ticks spent from burst creation until serviced by the DRAM (Tick)
system.mem_ctrl.dram.avgQLat                  6530.43                       # Average queueing delay per DRAM burst ((Tick/Count))
system.mem_ctrl.dram.avgBusLat                5000.00                       # Average bus latency per DRAM burst ((Tick/Count))
system.mem_ctrl.dram.avgMemAccLat            25280.43                       # Average memory access latency per DRAM burst ((Tick/Count))
system.mem_ctrl.dram.readRowHits                 6441                       # Number of row buffer hits during reads (Count)
system.mem_ctrl.dram.writeRowHits                   0                       # Number of row buffer hits during writes (Count)
system.mem_ctrl.dram.readRowHitRate             83.05                       # Row buffer hit rate for reads (Ratio)
system.mem_ctrl.dram.writeRowHitRate              nan                       # Row buffer hit rate for writes (Ratio)
system.mem_ctrl.dram.bytesPerActivate::samples         1301                       # Bytes accessed per row activation (Byte)
system.mem_ctrl.dram.bytesPerActivate::mean   378.687164                       # Bytes accessed per row activation (Byte)
system.mem_ctrl.dram.bytesPerActivate::gmean   248.364752                       # Bytes accessed per row activation (Byte)
system.mem_ctrl.dram.bytesPerActivate::stdev   317.166704                       # Bytes accessed per row activation (Byte)
system.mem_ctrl.dram.bytesPerActivate::0-127          311     23.90%     23.90% # Bytes accessed per row activation (Byte)
system.mem_ctrl.dram.bytesPerActivate::128-255          263     20.22%     44.12% # Bytes accessed per row activation (Byte)
system.mem_ctrl.dram.bytesPerActivate::256-383          201     15.45%     59.57% # Bytes accessed per row activation (Byte)
system.mem_ctrl.dram.bytesPerActivate::384-511          119      9.15%     68.72% # Bytes accessed per row activation (Byte)
system.mem_ctrl.dram.bytesPerActivate::512-639           84      6.46%     75.17% # Bytes accessed per row activation (Byte)
system.mem_ctrl.dram.bytesPerActivate::640-767           36      2.77%     77.94% # Bytes accessed per row activation (Byte)
system.mem_ctrl.dram.bytesPerActivate::768-895          140     10.76%     88.70% # Bytes accessed per row activation (Byte)
system.mem_ctrl.dram.bytesPerActivate::896-1023           69      5.30%     94.00% # Bytes accessed per row activation (Byte)
system.mem_ctrl.dram.bytesPerActivate::1024-1151           78      6.00%    100.00% # Bytes accessed per row activation (Byte)
system.mem_ctrl.dram.bytesPerActivate::total         1301                       # Bytes accessed per row activation (Byte)
system.mem_ctrl.dram.dramBytesRead             496384                       # Total bytes read (Byte)
system.mem_ctrl.dram.dramBytesWritten               0                       # Total bytes written (Byte)
system.mem_ctrl.dram.avgRdBW               242.560533                       # Average DRAM read bandwidth in MiBytes/s ((Byte/Second))
system.mem_ctrl.dram.avgWrBW                        0                       # Average DRAM write bandwidth in MiBytes/s ((Byte/Second))
system.mem_ctrl.dram.peakBW                  12800.00                       # Theoretical peak bandwidth in MiByte/s ((Byte/Second))
system.mem_ctrl.dram.busUtil                     1.90                       # Data bus utilization in percentage (Ratio)
system.mem_ctrl.dram.busUtilRead                 1.90                       # Data bus utilization in percentage for reads (Ratio)
system.mem_ctrl.dram.busUtilWrite                0.00                       # Data bus utilization in percentage for writes (Ratio)
system.mem_ctrl.dram.pageHitRate                83.05                       # Row buffer hit rate, read and write combined (Ratio)
system.mem_ctrl.dram.power_state.pwrStateResidencyTicks::UNDEFINED   2046433500                       # Cumulative time (in ticks) in various power states (Tick)
system.mem_ctrl.dram.rank0.actEnergy          4633860                       # Energy for activate commands per rank (pJ) (Joule)
system.mem_ctrl.dram.rank0.preEnergy          2432595                       # Energy for precharge commands per rank (pJ) (Joule)
system.mem_ctrl.dram.rank0.readEnergy        26525100                       # Energy for read commands per rank (pJ) (Joule)
system.mem_ctrl.dram.rank0.writeEnergy              0                       # Energy for write commands per rank (pJ) (Joule)
system.mem_ctrl.dram.rank0.refreshEnergy 161035680.000000                       # Energy for refresh commands per rank (pJ) (Joule)
system.mem_ctrl.dram.rank0.actBackEnergy    469236540                       # Energy for active background per rank (pJ) (Joule)
system.mem_ctrl.dram.rank0.preBackEnergy    390684000                       # Energy for precharge background per rank (pJ) (Joule)
system.mem_ctrl.dram.rank0.actPowerDownEnergy            0                       # Energy for active power-down per rank (pJ) (Joule)
system.mem_ctrl.dram.rank0.prePowerDownEnergy            0                       # Energy for precharge power-down per rank (pJ) (Joule)
system.mem_ctrl.dram.rank0.selfRefreshEnergy            0                       # Energy for self refresh per rank (pJ) (Joule)
system.mem_ctrl.dram.rank0.totalEnergy     1054547775                       # Total energy per rank (pJ) (Joule)
system.mem_ctrl.dram.rank0.averagePower    515.310063                       # Core power per rank (mW) (Watt)
system.mem_ctrl.dram.rank0.totalIdleTime            0                       # Total Idle time Per DRAM Rank (Tick)
system.mem_ctrl.dram.rank0.pwrStateTime::IDLE   1011831750                       # Time in different power states (Tick)
system.mem_ctrl.dram.rank0.pwrStateTime::REF     68120000                       # Time in different power states (Tick)
system.mem_ctrl.dram.rank0.pwrStateTime::SREF            0                       # Time in different power states (Tick)
system.mem_ctrl.dram.rank0.pwrStateTime::PRE_PDN            0                       # Time in different power states (Tick)
system.mem_ctrl.dram.rank0.pwrStateTime::ACT    966481750                       # Time in different power states (Tick)
system.mem_ctrl.dram.rank0.pwrStateTime::ACT_PDN            0                       # Time in different power states (Tick)
system.mem_ctrl.dram.rank1.actEnergy          4755240                       # Energy for activate commands per rank (pJ) (Joule)
system.mem_ctrl.dram.rank1.preEnergy          2504700                       # Energy for precharge commands per rank (pJ) (Joule)
system.mem_ctrl.dram.rank1.readEnergy        28852740                       # Energy for read commands per rank (pJ) (Joule)
system.mem_ctrl.dram.rank1.writeEnergy              0                       # Energy for write commands per rank (pJ) (Joule)
system.mem_ctrl.dram.rank1.refreshEnergy 161035680.000000                       # Energy for refresh commands per rank (pJ) (Joule)
system.mem_ctrl.dram.rank1.actBackEnergy    480482640                       # Energy for active background per rank (pJ) (Joule)
system.mem_ctrl.dram.rank1.preBackEnergy    381213600                       # Energy for precharge background per rank (pJ) (Joule)
system.mem_ctrl.dram.rank1.actPowerDownEnergy            0                       # Energy for active power-down per rank (pJ) (Joule)
system.mem_ctrl.dram.rank1.prePowerDownEnergy            0                       # Energy for precharge power-down per rank (pJ) (Joule)
system.mem_ctrl.dram.rank1.selfRefreshEnergy            0                       # Energy for self refresh per rank (pJ) (Joule)
system.mem_ctrl.dram.rank1.totalEnergy     1058844600                       # Total energy per rank (pJ) (Joule)
system.mem_ctrl.dram.rank1.averagePower    517.409728                       # Core power per rank (mW) (Watt)
system.mem_ctrl.dram.rank1.totalIdleTime            0                       # Total Idle time Per DRAM Rank (Tick)
system.mem_ctrl.dram.rank1.pwrStateTime::IDLE    987006250                       # Time in different power states (Tick)
system.mem_ctrl.dram.rank1.pwrStateTime::REF     68120000                       # Time in different power states (Tick)
system.mem_ctrl.dram.rank1.pwrStateTime::SREF            0                       # Time in different power states (Tick)
system.mem_ctrl.dram.rank1.pwrStateTime::PRE_PDN            0                       # Time in different power states (Tick)
system.mem_ctrl.dram.rank1.pwrStateTime::ACT    991307250                       # Time in different power states (Tick)
system.mem_ctrl.dram.rank1.pwrStateTime::ACT_PDN            0                       # Time in different power states (Tick)
system.mem_ctrl.power_state.pwrStateResidencyTicks::UNDEFINED   2046433500                       # Cumulative time (in ticks) in various power states (Tick)
system.membus.transDist::ReadResp                2674                       # Transaction distribution (Count)
system.membus.transDist::ReadExReq               5082                       # Transaction distribution (Count)
system.membus.transDist::ReadExResp              5082                       # Transaction distribution (Count)
system.membus.transDist::ReadSharedReq           2674                       # Transaction distribution (Count)
system.membus.pktCount_system.l2cache.mem_side_port::system.mem_ctrl.port        15512                       # Packet count per connected requestor and responder (Count)
system.membus.pktCount_system.l2cache.mem_side_port::total        15512                       # Packet count per connected requestor and responder (Count)
system.membus.pktCount::total                   15512                       # Packet count per connected requestor and responder (Count)
system.membus.pktSize_system.l2cache.mem_side_port::system.mem_ctrl.port       496384                       # Cumulative packet size per connected requestor and responder (Byte)
system.membus.pktSize_system.l2cache.mem_side_port::total       496384                       # Cumulative packet size per connected requestor and responder (Byte)
system.membus.pktSize::total                   496384                       # Cumulative packet size per connected requestor and responder (Byte)
system.membus.snoops                                0                       # Total snoops (Count)
system.membus.snoopTraffic                          0                       # Total snoop traffic (Byte)
system.membus.snoopFanout::samples               7756                       # Request fanout histogram (Count)
system.membus.snoopFanout::mean                     0                       # Request fanout histogram (Count)
system.membus.snoopFanout::stdev                    0                       # Request fanout histogram (Count)
system.membus.snoopFanout::underflows               0      0.00%      0.00% # Request fanout histogram (Count)
system.membus.snoopFanout::0                     7756    100.00%    100.00% # Request fanout histogram (Count)
system.membus.snoopFanout::1                        0      0.00%    100.00% # Request fanout histogram (Count)
system.membus.snoopFanout::overflows                0      0.00%    100.00% # Request fanout histogram (Count)
system.membus.snoopFanout::min_value                0                       # Request fanout histogram (Count)
system.membus.snoopFanout::max_value                0                       # Request fanout histogram (Count)
system.membus.snoopFanout::total                 7756                       # Request fanout histogram (Count)
system.membus.power_state.pwrStateResidencyTicks::UNDEFINED   2046433500                       # Cumulative time (in ticks) in various power states (Tick)
system.membus.reqLayer2.occupancy             3878000                       # Layer occupancy (ticks) (Tick)
system.membus.reqLayer2.utilization               0.0                       # Layer utilization (Ratio)
system.membus.respLayer0.occupancy           21090500                       # Layer occupancy (ticks) (Tick)
system.membus.respLayer0.utilization              0.0                       # Layer utilization (Ratio)
system.membus.snoop_filter.totRequests           7756                       # Total number of requests made to the snoop filter. (Count)
system.membus.snoop_filter.hitSingleRequests            0                       # Number of requests hitting in the snoop filter with a single holder of the requested data. (Count)
system.membus.snoop_filter.hitMultiRequests            0                       # Number of requests hitting in the snoop filter with multiple (>1) holders of the requested data. (Count)
system.membus.snoop_filter.totSnoops                0                       # Total number of snoops made to the snoop filter. (Count)
system.membus.snoop_filter.hitSingleSnoops            0                       # Number of snoops hitting in the snoop filter with a single holder of the requested data. (Count)
system.membus.snoop_filter.hitMultiSnoops            0                       # Number of snoops hitting in the snoop filter with multiple (>1) holders of the requested data. (Count)
system.workload.inst.arm                            0                       # number of arm instructions executed (Count)
system.workload.inst.quiesce                        0                       # number of quiesce instructions executed (Count)
system.cpu.dcache.decays                        64824                       # Number of decays (Unspecified)

---------- End Simulation Statistics   ----------
