
---------- Begin Simulation Statistics ----------
simSeconds                                   0.000443                       # Number of seconds simulated (Second)
simTicks                                    443473000                       # Number of ticks simulated (Tick)
finalTick                                   443473000                       # Number of ticks from beginning of simulation (restored from checkpoints and never reset) (Tick)
simFreq                                  1000000000000                       # The number of ticks per simulated second ((Tick/Second))
hostSeconds                                     11.70                       # Real time elapsed on the host (Second)
hostTickRate                                 37898237                       # The number of ticks simulated per host second (ticks/s) ((Tick/Second))
hostMemory                                     992092                       # Number of bytes of host memory used (Byte)
simInsts                                       760674                       # Number of instructions simulated (Count)
simOps                                        1384317                       # Number of ops (including micro ops) simulated (Count)
hostInstRate                                    65005                       # Simulator instruction rate (inst/s) ((Count/Second))
hostOpRate                                     118299                       # Simulator op (including micro ops) rate (op/s) ((Count/Second))
system.clk_domain.clock                           500                       # Clock period in ticks (Tick)
system.clk_domain.voltage_domain.voltage            1                       # Voltage in Volts (Volt)
system.cpu.numCycles                           886947                       # Number of cpu cycles simulated (Cycle)
system.cpu.cpi                               1.166001                       # CPI: cycles per instruction (core level) ((Cycle/Count))
system.cpu.ipc                               0.857632                       # IPC: instructions per cycle (core level) ((Count/Cycle))
system.cpu.numWorkItemsStarted                      0                       # Number of work items this cpu started (Count)
system.cpu.numWorkItemsCompleted                    0                       # Number of work items this cpu completed (Count)
system.cpu.instsAdded                         1480880                       # Number of instructions added to the IQ (excludes non-spec) (Count)
system.cpu.nonSpecInstsAdded                      527                       # Number of non-speculative instructions added to the IQ (Count)
system.cpu.instsIssued                        1456761                       # Number of instructions issued (Count)
system.cpu.squashedInstsIssued                   1806                       # Number of squashed instructions issued (Count)
system.cpu.squashedInstsExamined                97084                       # Number of squashed instructions iterated over during squash; mainly for profiling (Count)
system.cpu.squashedOperandsExamined            139259                       # Number of squashed operands that are examined and possibly removed from graph (Count)
system.cpu.squashedNonSpecRemoved                  68                       # Number of squashed non-spec instructions that were removed (Count)
system.cpu.numIssuedDist::samples              784610                       # Number of insts issued each cycle (Count)
system.cpu.numIssuedDist::mean               1.856669                       # Number of insts issued each cycle (Count)
system.cpu.numIssuedDist::stdev              1.622036                       # Number of insts issued each cycle (Count)
system.cpu.numIssuedDist::underflows                0      0.00%      0.00% # Number of insts issued each cycle (Count)
system.cpu.numIssuedDist::0                    267962     34.15%     34.15% # Number of insts issued each cycle (Count)
system.cpu.numIssuedDist::1                     87988     11.21%     45.37% # Number of insts issued each cycle (Count)
system.cpu.numIssuedDist::2                    121775     15.52%     60.89% # Number of insts issued each cycle (Count)
system.cpu.numIssuedDist::3                    102317     13.04%     73.93% # Number of insts issued each cycle (Count)
system.cpu.numIssuedDist::4                    204568     26.07%    100.00% # Number of insts issued each cycle (Count)
system.cpu.numIssuedDist::overflows                 0      0.00%    100.00% # Number of insts issued each cycle (Count)
system.cpu.numIssuedDist::min_value                 0                       # Number of insts issued each cycle (Count)
system.cpu.numIssuedDist::max_value                 4                       # Number of insts issued each cycle (Count)
system.cpu.numIssuedDist::total                784610                       # Number of insts issued each cycle (Count)
system.cpu.statFuBusy::No_OpClass                   0                       # attempts to use FU when none available (Count)
system.cpu.statFuBusy::IntAlu                       0                       # attempts to use FU when none available (Count)
system.cpu.statFuBusy::IntMult                      0                       # attempts to use FU when none available (Count)
system.cpu.statFuBusy::IntDiv                       0                       # attempts to use FU when none available (Count)
system.cpu.statFuBusy::FloatAdd                     0                       # attempts to use FU when none available (Count)
system.cpu.statFuBusy::FloatCmp                     0                       # attempts to use FU when none available (Count)
system.cpu.statFuBusy::FloatCvt                     0                       # attempts to use FU when none available (Count)
system.cpu.statFuBusy::FloatMult                    0                       # attempts to use FU when none available (Count)
system.cpu.statFuBusy::FloatMultAcc                 0                       # attempts to use FU when none available (Count)
system.cpu.statFuBusy::FloatDiv                     0                       # attempts to use FU when none available (Count)
system.cpu.statFuBusy::FloatMisc                    0                       # attempts to use FU when none available (Count)
system.cpu.statFuBusy::FloatSqrt                    0                       # attempts to use FU when none available (Count)
system.cpu.statFuBusy::SimdAdd                      0                       # attempts to use FU when none available (Count)
system.cpu.statFuBusy::SimdAddAcc                   0                       # attempts to use FU when none available (Count)
system.cpu.statFuBusy::SimdAlu                      0                       # attempts to use FU when none available (Count)
system.cpu.statFuBusy::SimdCmp                      0                       # attempts to use FU when none available (Count)
system.cpu.statFuBusy::SimdCvt                      0                       # attempts to use FU when none available (Count)
system.cpu.statFuBusy::SimdMisc                     0                       # attempts to use FU when none available (Count)
system.cpu.statFuBusy::SimdMult                     0                       # attempts to use FU when none available (Count)
system.cpu.statFuBusy::SimdMultAcc                  0                       # attempts to use FU when none available (Count)
system.cpu.statFuBusy::SimdMatMultAcc               0                       # attempts to use FU when none available (Count)
system.cpu.statFuBusy::SimdShift                    0                       # attempts to use FU when none available (Count)
system.cpu.statFuBusy::SimdShiftAcc                 0                       # attempts to use FU when none available (Count)
system.cpu.statFuBusy::SimdDiv                      0                       # attempts to use FU when none available (Count)
system.cpu.statFuBusy::SimdSqrt                     0                       # attempts to use FU when none available (Count)
system.cpu.statFuBusy::SimdFloatAdd                 0                       # attempts to use FU when none available (Count)
system.cpu.statFuBusy::SimdFloatAlu                 0                       # attempts to use FU when none available (Count)
system.cpu.statFuBusy::SimdFloatCmp                 0                       # attempts to use FU when none available (Count)
system.cpu.statFuBusy::SimdFloatCvt                 0                       # attempts to use FU when none available (Count)
system.cpu.statFuBusy::SimdFloatDiv                 0                       # attempts to use FU when none available (Count)
system.cpu.statFuBusy::SimdFloatMisc                0                       # attempts to use FU when none available (Count)
system.cpu.statFuBusy::SimdFloatMult                0                       # attempts to use FU when none available (Count)
system.cpu.statFuBusy::SimdFloatMultAcc             0                       # attempts to use FU when none available (Count)
system.cpu.statFuBusy::SimdFloatMatMultAcc            0                       # attempts to use FU when none available (Count)
system.cpu.statFuBusy::SimdFloatSqrt                0                       # attempts to use FU when none available (Count)
system.cpu.statFuBusy::SimdReduceAdd                0                       # attempts to use FU when none available (Count)
system.cpu.statFuBusy::SimdReduceAlu                0                       # attempts to use FU when none available (Count)
system.cpu.statFuBusy::SimdReduceCmp                0                       # attempts to use FU when none available (Count)
system.cpu.statFuBusy::SimdFloatReduceAdd            0                       # attempts to use FU when none available (Count)
system.cpu.statFuBusy::SimdFloatReduceCmp            0                       # attempts to use FU when none available (Count)
system.cpu.statFuBusy::SimdAes                      0                       # attempts to use FU when none available (Count)
system.cpu.statFuBusy::SimdAesMix                   0                       # attempts to use FU when none available (Count)
system.cpu.statFuBusy::SimdSha1Hash                 0                       # attempts to use FU when none available (Count)
system.cpu.statFuBusy::SimdSha1Hash2                0                       # attempts to use FU when none available (Count)
system.cpu.statFuBusy::SimdSha256Hash               0                       # attempts to use FU when none available (Count)
system.cpu.statFuBusy::SimdSha256Hash2              0                       # attempts to use FU when none available (Count)
system.cpu.statFuBusy::SimdShaSigma2                0                       # attempts to use FU when none available (Count)
system.cpu.statFuBusy::SimdShaSigma3                0                       # attempts to use FU when none available (Count)
system.cpu.statFuBusy::SimdPredAlu                  0                       # attempts to use FU when none available (Count)
system.cpu.statFuBusy::Matrix                       0                       # attempts to use FU when none available (Count)
system.cpu.statFuBusy::MatrixMov                    0                       # attempts to use FU when none available (Count)
system.cpu.statFuBusy::MatrixOP                     0                       # attempts to use FU when none available (Count)
system.cpu.statFuBusy::MemRead                      0                       # attempts to use FU when none available (Count)
system.cpu.statFuBusy::MemWrite                     0                       # attempts to use FU when none available (Count)
system.cpu.statFuBusy::FloatMemRead                 0                       # attempts to use FU when none available (Count)
system.cpu.statFuBusy::FloatMemWrite                0                       # attempts to use FU when none available (Count)
system.cpu.statFuBusy::IprAccess                    0                       # attempts to use FU when none available (Count)
system.cpu.statFuBusy::InstPrefetch                 0                       # attempts to use FU when none available (Count)
system.cpu.statFuBusy::SimdUnitStrideLoad            0                       # attempts to use FU when none available (Count)
system.cpu.statFuBusy::SimdUnitStrideStore            0                       # attempts to use FU when none available (Count)
system.cpu.statFuBusy::SimdUnitStrideMaskLoad            0                       # attempts to use FU when none available (Count)
system.cpu.statFuBusy::SimdUnitStrideMaskStore            0                       # attempts to use FU when none available (Count)
system.cpu.statFuBusy::SimdStridedLoad              0                       # attempts to use FU when none available (Count)
system.cpu.statFuBusy::SimdStridedStore             0                       # attempts to use FU when none available (Count)
system.cpu.statFuBusy::SimdIndexedLoad              0                       # attempts to use FU when none available (Count)
system.cpu.statFuBusy::SimdIndexedStore             0                       # attempts to use FU when none available (Count)
system.cpu.statFuBusy::SimdWholeRegisterLoad            0                       # attempts to use FU when none available (Count)
system.cpu.statFuBusy::SimdWholeRegisterStore            0                       # attempts to use FU when none available (Count)
system.cpu.statFuBusy::SimdUnitStrideFaultOnlyFirstLoad            0                       # attempts to use FU when none available (Count)
system.cpu.statFuBusy::SimdUnitStrideSegmentedLoad            0                       # attempts to use FU when none available (Count)
system.cpu.statFuBusy::SimdUnitStrideSegmentedStore            0                       # attempts to use FU when none available (Count)
system.cpu.statFuBusy::SimdExt                      0                       # attempts to use FU when none available (Count)
system.cpu.statFuBusy::SimdFloatExt                 0                       # attempts to use FU when none available (Count)
system.cpu.statFuBusy::SimdConfig                   0                       # attempts to use FU when none available (Count)
system.cpu.statIssuedInstType_0::No_OpClass         6652      0.46%      0.46% # Number of instructions issued per FU type, per thread (Count)
system.cpu.statIssuedInstType_0::IntAlu        935292     64.20%     64.66% # Number of instructions issued per FU type, per thread (Count)
system.cpu.statIssuedInstType_0::IntMult         3148      0.22%     64.88% # Number of instructions issued per FU type, per thread (Count)
system.cpu.statIssuedInstType_0::IntDiv          4252      0.29%     65.17% # Number of instructions issued per FU type, per thread (Count)
system.cpu.statIssuedInstType_0::FloatAdd        33956      2.33%     67.50% # Number of instructions issued per FU type, per thread (Count)
system.cpu.statIssuedInstType_0::FloatCmp            0      0.00%     67.50% # Number of instructions issued per FU type, per thread (Count)
system.cpu.statIssuedInstType_0::FloatCvt          336      0.02%     67.52% # Number of instructions issued per FU type, per thread (Count)
system.cpu.statIssuedInstType_0::FloatMult            0      0.00%     67.52% # Number of instructions issued per FU type, per thread (Count)
system.cpu.statIssuedInstType_0::FloatMultAcc            0      0.00%     67.52% # Number of instructions issued per FU type, per thread (Count)
system.cpu.statIssuedInstType_0::FloatDiv            0      0.00%     67.52% # Number of instructions issued per FU type, per thread (Count)
system.cpu.statIssuedInstType_0::FloatMisc            0      0.00%     67.52% # Number of instructions issued per FU type, per thread (Count)
system.cpu.statIssuedInstType_0::FloatSqrt            0      0.00%     67.52% # Number of instructions issued per FU type, per thread (Count)
system.cpu.statIssuedInstType_0::SimdAdd          813      0.06%     67.58% # Number of instructions issued per FU type, per thread (Count)
system.cpu.statIssuedInstType_0::SimdAddAcc            0      0.00%     67.58% # Number of instructions issued per FU type, per thread (Count)
system.cpu.statIssuedInstType_0::SimdAlu        28965      1.99%     69.57% # Number of instructions issued per FU type, per thread (Count)
system.cpu.statIssuedInstType_0::SimdCmp            0      0.00%     69.57% # Number of instructions issued per FU type, per thread (Count)
system.cpu.statIssuedInstType_0::SimdCvt         2328      0.16%     69.73% # Number of instructions issued per FU type, per thread (Count)
system.cpu.statIssuedInstType_0::SimdMisc        23633      1.62%     71.35% # Number of instructions issued per FU type, per thread (Count)
system.cpu.statIssuedInstType_0::SimdMult            0      0.00%     71.35% # Number of instructions issued per FU type, per thread (Count)
system.cpu.statIssuedInstType_0::SimdMultAcc            0      0.00%     71.35% # Number of instructions issued per FU type, per thread (Count)
system.cpu.statIssuedInstType_0::SimdMatMultAcc            0      0.00%     71.35% # Number of instructions issued per FU type, per thread (Count)
system.cpu.statIssuedInstType_0::SimdShift          810      0.06%     71.40% # Number of instructions issued per FU type, per thread (Count)
system.cpu.statIssuedInstType_0::SimdShiftAcc            0      0.00%     71.40% # Number of instructions issued per FU type, per thread (Count)
system.cpu.statIssuedInstType_0::SimdDiv            0      0.00%     71.40% # Number of instructions issued per FU type, per thread (Count)
system.cpu.statIssuedInstType_0::SimdSqrt            0      0.00%     71.40% # Number of instructions issued per FU type, per thread (Count)
system.cpu.statIssuedInstType_0::SimdFloatAdd        72408      4.97%     76.37% # Number of instructions issued per FU type, per thread (Count)
system.cpu.statIssuedInstType_0::SimdFloatAlu            0      0.00%     76.37% # Number of instructions issued per FU type, per thread (Count)
system.cpu.statIssuedInstType_0::SimdFloatCmp            0      0.00%     76.37% # Number of instructions issued per FU type, per thread (Count)
system.cpu.statIssuedInstType_0::SimdFloatCvt         6069      0.42%     76.79% # Number of instructions issued per FU type, per thread (Count)
system.cpu.statIssuedInstType_0::SimdFloatDiv         1062      0.07%     76.86% # Number of instructions issued per FU type, per thread (Count)
system.cpu.statIssuedInstType_0::SimdFloatMisc            0      0.00%     76.86% # Number of instructions issued per FU type, per thread (Count)
system.cpu.statIssuedInstType_0::SimdFloatMult        60471      4.15%     81.02% # Number of instructions issued per FU type, per thread (Count)
system.cpu.statIssuedInstType_0::SimdFloatMultAcc            0      0.00%     81.02% # Number of instructions issued per FU type, per thread (Count)
system.cpu.statIssuedInstType_0::SimdFloatMatMultAcc            0      0.00%     81.02% # Number of instructions issued per FU type, per thread (Count)
system.cpu.statIssuedInstType_0::SimdFloatSqrt            0      0.00%     81.02% # Number of instructions issued per FU type, per thread (Count)
system.cpu.statIssuedInstType_0::SimdReduceAdd            0      0.00%     81.02% # Number of instructions issued per FU type, per thread (Count)
system.cpu.statIssuedInstType_0::SimdReduceAlu            0      0.00%     81.02% # Number of instructions issued per FU type, per thread (Count)
system.cpu.statIssuedInstType_0::SimdReduceCmp            0      0.00%     81.02% # Number of instructions issued per FU type, per thread (Count)
system.cpu.statIssuedInstType_0::SimdFloatReduceAdd            0      0.00%     81.02% # Number of instructions issued per FU type, per thread (Count)
system.cpu.statIssuedInstType_0::SimdFloatReduceCmp            0      0.00%     81.02% # Number of instructions issued per FU type, per thread (Count)
system.cpu.statIssuedInstType_0::SimdAes            0      0.00%     81.02% # Number of instructions issued per FU type, per thread (Count)
system.cpu.statIssuedInstType_0::SimdAesMix            0      0.00%     81.02% # Number of instructions issued per FU type, per thread (Count)
system.cpu.statIssuedInstType_0::SimdSha1Hash            0      0.00%     81.02% # Number of instructions issued per FU type, per thread (Count)
system.cpu.statIssuedInstType_0::SimdSha1Hash2            0      0.00%     81.02% # Number of instructions issued per FU type, per thread (Count)
system.cpu.statIssuedInstType_0::SimdSha256Hash            0      0.00%     81.02% # Number of instructions issued per FU type, per thread (Count)
system.cpu.statIssuedInstType_0::SimdSha256Hash2            0      0.00%     81.02% # Number of instructions issued per FU type, per thread (Count)
system.cpu.statIssuedInstType_0::SimdShaSigma2            0      0.00%     81.02% # Number of instructions issued per FU type, per thread (Count)
system.cpu.statIssuedInstType_0::SimdShaSigma3            0      0.00%     81.02% # Number of instructions issued per FU type, per thread (Count)
system.cpu.statIssuedInstType_0::SimdPredAlu            0      0.00%     81.02% # Number of instructions issued per FU type, per thread (Count)
system.cpu.statIssuedInstType_0::Matrix             0      0.00%     81.02% # Number of instructions issued per FU type, per thread (Count)
system.cpu.statIssuedInstType_0::MatrixMov            0      0.00%     81.02% # Number of instructions issued per FU type, per thread (Count)
system.cpu.statIssuedInstType_0::MatrixOP            0      0.00%     81.02% # Number of instructions issued per FU type, per thread (Count)
system.cpu.statIssuedInstType_0::MemRead        94830      6.51%     87.52% # Number of instructions issued per FU type, per thread (Count)
system.cpu.statIssuedInstType_0::MemWrite        47037      3.23%     90.75% # Number of instructions issued per FU type, per thread (Count)
system.cpu.statIssuedInstType_0::FloatMemRead        91605      6.29%     97.04% # Number of instructions issued per FU type, per thread (Count)
system.cpu.statIssuedInstType_0::FloatMemWrite        43094      2.96%    100.00% # Number of instructions issued per FU type, per thread (Count)
system.cpu.statIssuedInstType_0::IprAccess            0      0.00%    100.00% # Number of instructions issued per FU type, per thread (Count)
system.cpu.statIssuedInstType_0::InstPrefetch            0      0.00%    100.00% # Number of instructions issued per FU type, per thread (Count)
system.cpu.statIssuedInstType_0::SimdUnitStrideLoad            0      0.00%    100.00% # Number of instructions issued per FU type, per thread (Count)
system.cpu.statIssuedInstType_0::SimdUnitStrideStore            0      0.00%    100.00% # Number of instructions issued per FU type, per thread (Count)
system.cpu.statIssuedInstType_0::SimdUnitStrideMaskLoad            0      0.00%    100.00% # Number of instructions issued per FU type, per thread (Count)
system.cpu.statIssuedInstType_0::SimdUnitStrideMaskStore            0      0.00%    100.00% # Number of instructions issued per FU type, per thread (Count)
system.cpu.statIssuedInstType_0::SimdStridedLoad            0      0.00%    100.00% # Number of instructions issued per FU type, per thread (Count)
system.cpu.statIssuedInstType_0::SimdStridedStore            0      0.00%    100.00% # Number of instructions issued per FU type, per thread (Count)
system.cpu.statIssuedInstType_0::SimdIndexedLoad            0      0.00%    100.00% # Number of instructions issued per FU type, per thread (Count)
system.cpu.statIssuedInstType_0::SimdIndexedStore            0      0.00%    100.00% # Number of instructions issued per FU type, per thread (Count)
system.cpu.statIssuedInstType_0::SimdWholeRegisterLoad            0      0.00%    100.00% # Number of instructions issued per FU type, per thread (Count)
system.cpu.statIssuedInstType_0::SimdWholeRegisterStore            0      0.00%    100.00% # Number of instructions issued per FU type, per thread (Count)
system.cpu.statIssuedInstType_0::SimdUnitStrideFaultOnlyFirstLoad            0      0.00%    100.00% # Number of instructions issued per FU type, per thread (Count)
system.cpu.statIssuedInstType_0::SimdUnitStrideSegmentedLoad            0      0.00%    100.00% # Number of instructions issued per FU type, per thread (Count)
system.cpu.statIssuedInstType_0::SimdUnitStrideSegmentedStore            0      0.00%    100.00% # Number of instructions issued per FU type, per thread (Count)
system.cpu.statIssuedInstType_0::SimdExt            0      0.00%    100.00% # Number of instructions issued per FU type, per thread (Count)
system.cpu.statIssuedInstType_0::SimdFloatExt            0      0.00%    100.00% # Number of instructions issued per FU type, per thread (Count)
system.cpu.statIssuedInstType_0::SimdConfig            0      0.00%    100.00% # Number of instructions issued per FU type, per thread (Count)
system.cpu.statIssuedInstType_0::total        1456761                       # Number of instructions issued per FU type, per thread (Count)
system.cpu.issueRate                         1.642444                       # Inst issue rate ((Count/Cycle))
system.cpu.fuBusy                                   0                       # FU busy when requested (Count)
system.cpu.fuBusyRate                               0                       # FU busy rate (busy events/executed inst) ((Count/Count))
system.cpu.intInstQueueReads                  2795316                       # Number of integer instruction queue reads (Count)
system.cpu.intInstQueueWrites                 1109815                       # Number of integer instruction queue writes (Count)
system.cpu.intInstQueueWakeupAccesses          992950                       # Number of integer instruction queue wakeup accesses (Count)
system.cpu.fpInstQueueReads                    904622                       # Number of floating instruction queue reads (Count)
system.cpu.fpInstQueueWrites                   468755                       # Number of floating instruction queue writes (Count)
system.cpu.fpInstQueueWakeupAccesses           448556                       # Number of floating instruction queue wakeup accesses (Count)
system.cpu.vecInstQueueReads                        0                       # Number of vector instruction queue reads (Count)
system.cpu.vecInstQueueWrites                       0                       # Number of vector instruction queue writes (Count)
system.cpu.vecInstQueueWakeupAccesses               0                       # Number of vector instruction queue wakeup accesses (Count)
system.cpu.intAluAccesses                      997993                       # Number of integer alu accesses (Count)
system.cpu.fpAluAccesses                       452116                       # Number of floating point alu accesses (Count)
system.cpu.vecAluAccesses                           0                       # Number of vector alu accesses (Count)
system.cpu.numRecvResp                         246151                       # Number of received responses (Count)
system.cpu.numRecvRespBytes                   1794958                       # Number of received response bytes (Byte)
system.cpu.recvRespAvgBW                         2.02                       # Average bandwidth of received responses ((Byte/Cycle))
system.cpu.recvRespAvgSize                       7.29                       # Average packet size per received response ((Byte/Count))
system.cpu.recvRespAvgRate                       0.28                       # Average rate of received responses per cycle ((Count/Cycle))
system.cpu.recvRespAvgRetryRate                  0.00                       # Average retry rate per received response ((Count/Count))
system.cpu.numSendRetryResp                         0                       # Number of retry responses sent (Count)
system.cpu.numSquashedInsts                      9651                       # Number of squashed instructions skipped in execute (Count)
system.cpu.numSwp                                   0                       # Number of swp insts executed (Count)
system.cpu.timesIdled                            1203                       # Number of times that the entire CPU went into an idle state and unscheduled itself (Count)
system.cpu.idleCycles                          102337                       # Total number of cycles that the CPU has spent unscheduled due to idling (Cycle)
system.cpu.MemDepUnit__0.insertedLoads         187998                       # Number of loads inserted to the mem dependence unit. (Count)
system.cpu.MemDepUnit__0.insertedStores         91856                       # Number of stores inserted to the mem dependence unit. (Count)
system.cpu.MemDepUnit__0.conflictingLoads         8394                       # Number of conflicting loads. (Count)
system.cpu.MemDepUnit__0.conflictingStores         3792                       # Number of conflicting stores. (Count)
system.cpu.MemDepUnit__1.insertedLoads              0                       # Number of loads inserted to the mem dependence unit. (Count)
system.cpu.MemDepUnit__1.insertedStores             0                       # Number of stores inserted to the mem dependence unit. (Count)
system.cpu.MemDepUnit__1.conflictingLoads            0                       # Number of conflicting loads. (Count)
system.cpu.MemDepUnit__1.conflictingStores            0                       # Number of conflicting stores. (Count)
system.cpu.MemDepUnit__2.insertedLoads              0                       # Number of loads inserted to the mem dependence unit. (Count)
system.cpu.MemDepUnit__2.insertedStores             0                       # Number of stores inserted to the mem dependence unit. (Count)
system.cpu.MemDepUnit__2.conflictingLoads            0                       # Number of conflicting loads. (Count)
system.cpu.MemDepUnit__2.conflictingStores            0                       # Number of conflicting stores. (Count)
system.cpu.MemDepUnit__3.insertedLoads              0                       # Number of loads inserted to the mem dependence unit. (Count)
system.cpu.MemDepUnit__3.insertedStores             0                       # Number of stores inserted to the mem dependence unit. (Count)
system.cpu.MemDepUnit__3.conflictingLoads            0                       # Number of conflicting loads. (Count)
system.cpu.MemDepUnit__3.conflictingStores            0                       # Number of conflicting stores. (Count)
system.cpu.branchPred.lookups_0::NoBranch          474      0.41%      0.41% # Number of BP lookups (Count)
system.cpu.branchPred.lookups_0::Return          9738      8.51%      8.92% # Number of BP lookups (Count)
system.cpu.branchPred.lookups_0::CallDirect         9701      8.47%     17.40% # Number of BP lookups (Count)
system.cpu.branchPred.lookups_0::CallIndirect          289      0.25%     17.65% # Number of BP lookups (Count)
system.cpu.branchPred.lookups_0::DirectCond        83959     73.34%     90.99% # Number of BP lookups (Count)
system.cpu.branchPred.lookups_0::DirectUncond         5776      5.05%     96.04% # Number of BP lookups (Count)
system.cpu.branchPred.lookups_0::IndirectCond            0      0.00%     96.04% # Number of BP lookups (Count)
system.cpu.branchPred.lookups_0::IndirectUncond         4537      3.96%    100.00% # Number of BP lookups (Count)
system.cpu.branchPred.lookups_0::total         114474                       # Number of BP lookups (Count)
system.cpu.branchPred.squashes_0::NoBranch          423      2.61%      2.61% # Number of branches that got squashed (completely removed) as an earlier branch was mispredicted. (Count)
system.cpu.branchPred.squashes_0::Return          734      4.53%      7.15% # Number of branches that got squashed (completely removed) as an earlier branch was mispredicted. (Count)
system.cpu.branchPred.squashes_0::CallDirect          909      5.62%     12.76% # Number of branches that got squashed (completely removed) as an earlier branch was mispredicted. (Count)
system.cpu.branchPred.squashes_0::CallIndirect           71      0.44%     13.20% # Number of branches that got squashed (completely removed) as an earlier branch was mispredicted. (Count)
system.cpu.branchPred.squashes_0::DirectCond        12106     74.78%     87.98% # Number of branches that got squashed (completely removed) as an earlier branch was mispredicted. (Count)
system.cpu.branchPred.squashes_0::DirectUncond         1133      7.00%     94.98% # Number of branches that got squashed (completely removed) as an earlier branch was mispredicted. (Count)
system.cpu.branchPred.squashes_0::IndirectCond            0      0.00%     94.98% # Number of branches that got squashed (completely removed) as an earlier branch was mispredicted. (Count)
system.cpu.branchPred.squashes_0::IndirectUncond          812      5.02%    100.00% # Number of branches that got squashed (completely removed) as an earlier branch was mispredicted. (Count)
system.cpu.branchPred.squashes_0::total         16188                       # Number of branches that got squashed (completely removed) as an earlier branch was mispredicted. (Count)
system.cpu.branchPred.corrected_0::NoBranch           68      0.68%      0.68% # Number of branches that got corrected but not yet commited. Branches get corrected by decode or after execute. Also a branch misprediction can be detected out-of-order. Therefore, a corrected branch might not end up beeing committed in case an even earlier branch was mispredicted (Count)
system.cpu.branchPred.corrected_0::Return            5      0.05%      0.73% # Number of branches that got corrected but not yet commited. Branches get corrected by decode or after execute. Also a branch misprediction can be detected out-of-order. Therefore, a corrected branch might not end up beeing committed in case an even earlier branch was mispredicted (Count)
system.cpu.branchPred.corrected_0::CallDirect          450      4.48%      5.20% # Number of branches that got corrected but not yet commited. Branches get corrected by decode or after execute. Also a branch misprediction can be detected out-of-order. Therefore, a corrected branch might not end up beeing committed in case an even earlier branch was mispredicted (Count)
system.cpu.branchPred.corrected_0::CallIndirect          153      1.52%      6.73% # Number of branches that got corrected but not yet commited. Branches get corrected by decode or after execute. Also a branch misprediction can be detected out-of-order. Therefore, a corrected branch might not end up beeing committed in case an even earlier branch was mispredicted (Count)
system.cpu.branchPred.corrected_0::DirectCond         6554     65.21%     71.93% # Number of branches that got corrected but not yet commited. Branches get corrected by decode or after execute. Also a branch misprediction can be detected out-of-order. Therefore, a corrected branch might not end up beeing committed in case an even earlier branch was mispredicted (Count)
system.cpu.branchPred.corrected_0::DirectUncond         2440     24.28%     96.21% # Number of branches that got corrected but not yet commited. Branches get corrected by decode or after execute. Also a branch misprediction can be detected out-of-order. Therefore, a corrected branch might not end up beeing committed in case an even earlier branch was mispredicted (Count)
system.cpu.branchPred.corrected_0::IndirectCond            0      0.00%     96.21% # Number of branches that got corrected but not yet commited. Branches get corrected by decode or after execute. Also a branch misprediction can be detected out-of-order. Therefore, a corrected branch might not end up beeing committed in case an even earlier branch was mispredicted (Count)
system.cpu.branchPred.corrected_0::IndirectUncond          381      3.79%    100.00% # Number of branches that got corrected but not yet commited. Branches get corrected by decode or after execute. Also a branch misprediction can be detected out-of-order. Therefore, a corrected branch might not end up beeing committed in case an even earlier branch was mispredicted (Count)
system.cpu.branchPred.corrected_0::total        10051                       # Number of branches that got corrected but not yet commited. Branches get corrected by decode or after execute. Also a branch misprediction can be detected out-of-order. Therefore, a corrected branch might not end up beeing committed in case an even earlier branch was mispredicted (Count)
system.cpu.branchPred.earlyResteers_0::NoBranch            0                       # Number of branches that got redirected after decode. (Count)
system.cpu.branchPred.earlyResteers_0::Return            0                       # Number of branches that got redirected after decode. (Count)
system.cpu.branchPred.earlyResteers_0::CallDirect            0                       # Number of branches that got redirected after decode. (Count)
system.cpu.branchPred.earlyResteers_0::CallIndirect            0                       # Number of branches that got redirected after decode. (Count)
system.cpu.branchPred.earlyResteers_0::DirectCond            0                       # Number of branches that got redirected after decode. (Count)
system.cpu.branchPred.earlyResteers_0::DirectUncond            0                       # Number of branches that got redirected after decode. (Count)
system.cpu.branchPred.earlyResteers_0::IndirectCond            0                       # Number of branches that got redirected after decode. (Count)
system.cpu.branchPred.earlyResteers_0::IndirectUncond            0                       # Number of branches that got redirected after decode. (Count)
system.cpu.branchPred.earlyResteers_0::total            0                       # Number of branches that got redirected after decode. (Count)
system.cpu.branchPred.committed_0::NoBranch           51      0.05%      0.05% # Number of branches finally committed  (Count)
system.cpu.branchPred.committed_0::Return         9004      9.16%      9.21% # Number of branches finally committed  (Count)
system.cpu.branchPred.committed_0::CallDirect         8792      8.95%     18.16% # Number of branches finally committed  (Count)
system.cpu.branchPred.committed_0::CallIndirect          218      0.22%     18.38% # Number of branches finally committed  (Count)
system.cpu.branchPred.committed_0::DirectCond        71852     73.11%     91.49% # Number of branches finally committed  (Count)
system.cpu.branchPred.committed_0::DirectUncond         4643      4.72%     96.21% # Number of branches finally committed  (Count)
system.cpu.branchPred.committed_0::IndirectCond            0      0.00%     96.21% # Number of branches finally committed  (Count)
system.cpu.branchPred.committed_0::IndirectUncond         3725      3.79%    100.00% # Number of branches finally committed  (Count)
system.cpu.branchPred.committed_0::total        98285                       # Number of branches finally committed  (Count)
system.cpu.branchPred.mispredicted_0::NoBranch           51      0.55%      0.55% # Number of committed branches that were mispredicted. (Count)
system.cpu.branchPred.mispredicted_0::Return            0      0.00%      0.55% # Number of committed branches that were mispredicted. (Count)
system.cpu.branchPred.mispredicted_0::CallDirect          299      3.21%      3.75% # Number of committed branches that were mispredicted. (Count)
system.cpu.branchPred.mispredicted_0::CallIndirect          143      1.53%      5.29% # Number of committed branches that were mispredicted. (Count)
system.cpu.branchPred.mispredicted_0::DirectCond         6199     66.49%     71.78% # Number of committed branches that were mispredicted. (Count)
system.cpu.branchPred.mispredicted_0::DirectUncond         2288     24.54%     96.32% # Number of committed branches that were mispredicted. (Count)
system.cpu.branchPred.mispredicted_0::IndirectCond            0      0.00%     96.32% # Number of committed branches that were mispredicted. (Count)
system.cpu.branchPred.mispredicted_0::IndirectUncond          343      3.68%    100.00% # Number of committed branches that were mispredicted. (Count)
system.cpu.branchPred.mispredicted_0::total         9323                       # Number of committed branches that were mispredicted. (Count)
system.cpu.branchPred.mispredictDueToPredictor_0::NoBranch           51      0.68%      0.68% # Number of committed branches that were mispredicted by the predictor. (Count)
system.cpu.branchPred.mispredictDueToPredictor_0::Return            0      0.00%      0.68% # Number of committed branches that were mispredicted by the predictor. (Count)
system.cpu.branchPred.mispredictDueToPredictor_0::CallDirect            1      0.01%      0.70% # Number of committed branches that were mispredicted by the predictor. (Count)
system.cpu.branchPred.mispredictDueToPredictor_0::CallIndirect            0      0.00%      0.70% # Number of committed branches that were mispredicted by the predictor. (Count)
system.cpu.branchPred.mispredictDueToPredictor_0::DirectCond         5364     71.85%     72.54% # Number of committed branches that were mispredicted by the predictor. (Count)
system.cpu.branchPred.mispredictDueToPredictor_0::DirectUncond         2050     27.46%    100.00% # Number of committed branches that were mispredicted by the predictor. (Count)
system.cpu.branchPred.mispredictDueToPredictor_0::IndirectCond            0      0.00%    100.00% # Number of committed branches that were mispredicted by the predictor. (Count)
system.cpu.branchPred.mispredictDueToPredictor_0::IndirectUncond            0      0.00%    100.00% # Number of committed branches that were mispredicted by the predictor. (Count)
system.cpu.branchPred.mispredictDueToPredictor_0::total         7466                       # Number of committed branches that were mispredicted by the predictor. (Count)
system.cpu.branchPred.mispredictDueToBTBMiss_0::NoBranch            0      0.00%      0.00% # Number of committed branches that were mispredicted because of a BTB miss. (Count)
system.cpu.branchPred.mispredictDueToBTBMiss_0::Return            0      0.00%      0.00% # Number of committed branches that were mispredicted because of a BTB miss. (Count)
system.cpu.branchPred.mispredictDueToBTBMiss_0::CallDirect          298     16.05%     16.05% # Number of committed branches that were mispredicted because of a BTB miss. (Count)
system.cpu.branchPred.mispredictDueToBTBMiss_0::CallIndirect          143      7.70%     23.75% # Number of committed branches that were mispredicted because of a BTB miss. (Count)
system.cpu.branchPred.mispredictDueToBTBMiss_0::DirectCond          835     44.96%     68.71% # Number of committed branches that were mispredicted because of a BTB miss. (Count)
system.cpu.branchPred.mispredictDueToBTBMiss_0::DirectUncond          238     12.82%     81.53% # Number of committed branches that were mispredicted because of a BTB miss. (Count)
system.cpu.branchPred.mispredictDueToBTBMiss_0::IndirectCond            0      0.00%     81.53% # Number of committed branches that were mispredicted because of a BTB miss. (Count)
system.cpu.branchPred.mispredictDueToBTBMiss_0::IndirectUncond          343     18.47%    100.00% # Number of committed branches that were mispredicted because of a BTB miss. (Count)
system.cpu.branchPred.mispredictDueToBTBMiss_0::total         1857                       # Number of committed branches that were mispredicted because of a BTB miss. (Count)
system.cpu.branchPred.targetProvider_0::NoTarget        48932     42.75%     42.75% # The component providing the target for taken branches (Count)
system.cpu.branchPred.targetProvider_0::BTB        52209     45.61%     88.35% # The component providing the target for taken branches (Count)
system.cpu.branchPred.targetProvider_0::RAS         9737      8.51%     96.86% # The component providing the target for taken branches (Count)
system.cpu.branchPred.targetProvider_0::Indirect         3596      3.14%    100.00% # The component providing the target for taken branches (Count)
system.cpu.branchPred.targetProvider_0::total       114474                       # The component providing the target for taken branches (Count)
system.cpu.branchPred.targetWrong_0::NoBranch         4130     42.34%     42.34% # Number of branches where the target was incorrect or not available at prediction time. (Count)
system.cpu.branchPred.targetWrong_0::Return         5568     57.08%     99.42% # Number of branches where the target was incorrect or not available at prediction time. (Count)
system.cpu.branchPred.targetWrong_0::CallDirect            5      0.05%     99.47% # Number of branches where the target was incorrect or not available at prediction time. (Count)
system.cpu.branchPred.targetWrong_0::CallIndirect           52      0.53%    100.00% # Number of branches where the target was incorrect or not available at prediction time. (Count)
system.cpu.branchPred.targetWrong_0::DirectCond            0      0.00%    100.00% # Number of branches where the target was incorrect or not available at prediction time. (Count)
system.cpu.branchPred.targetWrong_0::DirectUncond            0      0.00%    100.00% # Number of branches where the target was incorrect or not available at prediction time. (Count)
system.cpu.branchPred.targetWrong_0::IndirectCond            0      0.00%    100.00% # Number of branches where the target was incorrect or not available at prediction time. (Count)
system.cpu.branchPred.targetWrong_0::IndirectUncond            0      0.00%    100.00% # Number of branches where the target was incorrect or not available at prediction time. (Count)
system.cpu.branchPred.targetWrong_0::total         9755                       # Number of branches where the target was incorrect or not available at prediction time. (Count)
system.cpu.branchPred.condPredicted             84433                       # Number of conditional branches predicted (Count)
system.cpu.branchPred.condPredictedTaken        39032                       # Number of conditional branches predicted as taken (Count)
system.cpu.branchPred.condIncorrect             10051                       # Number of conditional branches incorrect (Count)
system.cpu.branchPred.predTakenBTBMiss           1082                       # Number of branches predicted taken but missed in BTB (Count)
system.cpu.branchPred.BTBLookups               114474                       # Number of BTB lookups (Count)
system.cpu.branchPred.BTBUpdates                 7939                       # Number of BTB updates (Count)
system.cpu.branchPred.BTBHits                   71310                       # Number of BTB hits (Count)
system.cpu.branchPred.BTBHitRatio            0.622936                       # BTB Hit Ratio (Ratio)
system.cpu.branchPred.BTBMispredicted            1767                       # Number BTB mispredictions. No target found or target wrong (Count)
system.cpu.branchPred.indirectLookups            4826                       # Number of indirect predictor lookups. (Count)
system.cpu.branchPred.indirectHits               3596                       # Number of indirect target hits. (Count)
system.cpu.branchPred.indirectMisses             1230                       # Number of indirect misses. (Count)
system.cpu.branchPred.indirectMispredicted            0                       # Number of mispredicted indirect branches. (Count)
system.cpu.branchPred.btb.lookups::NoBranch          474      0.41%      0.41% # Number of BTB lookups (Count)
system.cpu.branchPred.btb.lookups::Return         9738      8.51%      8.92% # Number of BTB lookups (Count)
system.cpu.branchPred.btb.lookups::CallDirect         9701      8.47%     17.40% # Number of BTB lookups (Count)
system.cpu.branchPred.btb.lookups::CallIndirect          289      0.25%     17.65% # Number of BTB lookups (Count)
system.cpu.branchPred.btb.lookups::DirectCond        83959     73.34%     90.99% # Number of BTB lookups (Count)
system.cpu.branchPred.btb.lookups::DirectUncond         5776      5.05%     96.04% # Number of BTB lookups (Count)
system.cpu.branchPred.btb.lookups::IndirectCond            0      0.00%     96.04% # Number of BTB lookups (Count)
system.cpu.branchPred.btb.lookups::IndirectUncond         4537      3.96%    100.00% # Number of BTB lookups (Count)
system.cpu.branchPred.btb.lookups::total       114474                       # Number of BTB lookups (Count)
system.cpu.branchPred.btb.misses::NoBranch          155      0.36%      0.36% # Number of BTB misses (Count)
system.cpu.branchPred.btb.misses::Return         9699     22.47%     22.83% # Number of BTB misses (Count)
system.cpu.branchPred.btb.misses::CallDirect          565      1.31%     24.14% # Number of BTB misses (Count)
system.cpu.branchPred.btb.misses::CallIndirect          289      0.67%     24.81% # Number of BTB misses (Count)
system.cpu.branchPred.btb.misses::DirectCond        27446     63.59%     88.39% # Number of BTB misses (Count)
system.cpu.branchPred.btb.misses::DirectUncond          473      1.10%     89.49% # Number of BTB misses (Count)
system.cpu.branchPred.btb.misses::IndirectCond            0      0.00%     89.49% # Number of BTB misses (Count)
system.cpu.branchPred.btb.misses::IndirectUncond         4537     10.51%    100.00% # Number of BTB misses (Count)
system.cpu.branchPred.btb.misses::total         43164                       # Number of BTB misses (Count)
system.cpu.branchPred.btb.updates::NoBranch            0      0.00%      0.00% # Number of BTB updates (Count)
system.cpu.branchPred.btb.updates::Return            0      0.00%      0.00% # Number of BTB updates (Count)
system.cpu.branchPred.btb.updates::CallDirect          450      5.67%      5.67% # Number of BTB updates (Count)
system.cpu.branchPred.btb.updates::CallIndirect            0      0.00%      5.67% # Number of BTB updates (Count)
system.cpu.branchPred.btb.updates::DirectCond         5049     63.60%     69.27% # Number of BTB updates (Count)
system.cpu.branchPred.btb.updates::DirectUncond         2440     30.73%    100.00% # Number of BTB updates (Count)
system.cpu.branchPred.btb.updates::IndirectCond            0      0.00%    100.00% # Number of BTB updates (Count)
system.cpu.branchPred.btb.updates::IndirectUncond            0      0.00%    100.00% # Number of BTB updates (Count)
system.cpu.branchPred.btb.updates::total         7939                       # Number of BTB updates (Count)
system.cpu.branchPred.btb.mispredict::NoBranch            0      0.00%      0.00% # Number of BTB mispredictions. No target found or target wrong. (Count)
system.cpu.branchPred.btb.mispredict::Return            0      0.00%      0.00% # Number of BTB mispredictions. No target found or target wrong. (Count)
system.cpu.branchPred.btb.mispredict::CallDirect          450      5.67%      5.67% # Number of BTB mispredictions. No target found or target wrong. (Count)
system.cpu.branchPred.btb.mispredict::CallIndirect            0      0.00%      5.67% # Number of BTB mispredictions. No target found or target wrong. (Count)
system.cpu.branchPred.btb.mispredict::DirectCond         5049     63.60%     69.27% # Number of BTB mispredictions. No target found or target wrong. (Count)
system.cpu.branchPred.btb.mispredict::DirectUncond         2440     30.73%    100.00% # Number of BTB mispredictions. No target found or target wrong. (Count)
system.cpu.branchPred.btb.mispredict::IndirectCond            0      0.00%    100.00% # Number of BTB mispredictions. No target found or target wrong. (Count)
system.cpu.branchPred.btb.mispredict::IndirectUncond            0      0.00%    100.00% # Number of BTB mispredictions. No target found or target wrong. (Count)
system.cpu.branchPred.btb.mispredict::total         7939                       # Number of BTB mispredictions. No target found or target wrong. (Count)
system.cpu.branchPred.btb.power_state.pwrStateResidencyTicks::UNDEFINED    443473000                       # Cumulative time (in ticks) in various power states (Tick)
system.cpu.branchPred.indirectBranchPred.lookups         4826                       # Number of lookups (Count)
system.cpu.branchPred.indirectBranchPred.hits         3596                       # Number of hits of a tag (Count)
system.cpu.branchPred.indirectBranchPred.misses         1230                       # Number of misses (Count)
system.cpu.branchPred.indirectBranchPred.targetRecords          534                       # Number of targets that where recorded/installed in the cache (Count)
system.cpu.branchPred.indirectBranchPred.indirectRecords         5360                       # Number of indirect branches/calls recorded in the indirect hist (Count)
system.cpu.branchPred.indirectBranchPred.speculativeOverflows            4                       # Number of times more than the allowed capacity for speculative branches/calls where in flight and destroy the path history (Count)
system.cpu.branchPred.ras.pushes                10724                       # Number of times a PC was pushed onto the RAS (Count)
system.cpu.branchPred.ras.pops                  10718                       # Number of times a PC was poped from the RAS (Count)
system.cpu.branchPred.ras.squashes               1714                       # Number of times the stack operation was squashed due to wrong speculation. (Count)
system.cpu.branchPred.ras.used                   9004                       # Number of times the RAS is the provider (Count)
system.cpu.branchPred.ras.correct                9004                       # Number of times the RAS is the provider and the prediction is correct (Count)
system.cpu.branchPred.ras.incorrect                 0                       # Number of times the RAS is the provider and the prediction is wrong (Count)
system.cpu.commit.commitSquashedInsts           94145                       # The number of squashed insts skipped by commit (Count)
system.cpu.commit.commitNonSpecStalls             459                       # The number of times commit has been forced to stall to communicate backwards (Count)
system.cpu.commit.branchMispredicts              5306                       # The number of times a branch was mispredicted (Count)
system.cpu.commit.numCommittedDist::samples       769839                       # Number of insts commited each cycle (Count)
system.cpu.commit.numCommittedDist::mean     1.798190                       # Number of insts commited each cycle (Count)
system.cpu.commit.numCommittedDist::stdev     1.738008                       # Number of insts commited each cycle (Count)
system.cpu.commit.numCommittedDist::underflows            0      0.00%      0.00% # Number of insts commited each cycle (Count)
system.cpu.commit.numCommittedDist::0          302152     39.25%     39.25% # Number of insts commited each cycle (Count)
system.cpu.commit.numCommittedDist::1           99837     12.97%     52.22% # Number of insts commited each cycle (Count)
system.cpu.commit.numCommittedDist::2           68848      8.94%     61.16% # Number of insts commited each cycle (Count)
system.cpu.commit.numCommittedDist::3           49224      6.39%     67.55% # Number of insts commited each cycle (Count)
system.cpu.commit.numCommittedDist::4          249778     32.45%    100.00% # Number of insts commited each cycle (Count)
system.cpu.commit.numCommittedDist::overflows            0      0.00%    100.00% # Number of insts commited each cycle (Count)
system.cpu.commit.numCommittedDist::min_value            0                       # Number of insts commited each cycle (Count)
system.cpu.commit.numCommittedDist::max_value            4                       # Number of insts commited each cycle (Count)
system.cpu.commit.numCommittedDist::total       769839                       # Number of insts commited each cycle (Count)
system.cpu.commit.amos                              0                       # Number of atomic instructions committed (Count)
system.cpu.commit.membars                         180                       # Number of memory barriers committed (Count)
system.cpu.commit.functionCalls                  9010                       # Number of function calls committed. (Count)
system.cpu.commit.committedInstType_0::No_OpClass         5551      0.40%      0.40% # Class of committed instruction (Count)
system.cpu.commit.committedInstType_0::IntAlu       884219     63.87%     64.28% # Class of committed instruction (Count)
system.cpu.commit.committedInstType_0::IntMult         3013      0.22%     64.49% # Class of committed instruction (Count)
system.cpu.commit.committedInstType_0::IntDiv         4084      0.30%     64.79% # Class of committed instruction (Count)
system.cpu.commit.committedInstType_0::FloatAdd        32959      2.38%     67.17% # Class of committed instruction (Count)
system.cpu.commit.committedInstType_0::FloatCmp            0      0.00%     67.17% # Class of committed instruction (Count)
system.cpu.commit.committedInstType_0::FloatCvt          336      0.02%     67.19% # Class of committed instruction (Count)
system.cpu.commit.committedInstType_0::FloatMult            0      0.00%     67.19% # Class of committed instruction (Count)
system.cpu.commit.committedInstType_0::FloatMultAcc            0      0.00%     67.19% # Class of committed instruction (Count)
system.cpu.commit.committedInstType_0::FloatDiv            0      0.00%     67.19% # Class of committed instruction (Count)
system.cpu.commit.committedInstType_0::FloatMisc            0      0.00%     67.19% # Class of committed instruction (Count)
system.cpu.commit.committedInstType_0::FloatSqrt            0      0.00%     67.19% # Class of committed instruction (Count)
system.cpu.commit.committedInstType_0::SimdAdd          664      0.05%     67.24% # Class of committed instruction (Count)
system.cpu.commit.committedInstType_0::SimdAddAcc            0      0.00%     67.24% # Class of committed instruction (Count)
system.cpu.commit.committedInstType_0::SimdAlu        27304      1.97%     69.21% # Class of committed instruction (Count)
system.cpu.commit.committedInstType_0::SimdCmp            0      0.00%     69.21% # Class of committed instruction (Count)
system.cpu.commit.committedInstType_0::SimdCvt         1898      0.14%     69.35% # Class of committed instruction (Count)
system.cpu.commit.committedInstType_0::SimdMisc        23415      1.69%     71.04% # Class of committed instruction (Count)
system.cpu.commit.committedInstType_0::SimdMult            0      0.00%     71.04% # Class of committed instruction (Count)
system.cpu.commit.committedInstType_0::SimdMultAcc            0      0.00%     71.04% # Class of committed instruction (Count)
system.cpu.commit.committedInstType_0::SimdMatMultAcc            0      0.00%     71.04% # Class of committed instruction (Count)
system.cpu.commit.committedInstType_0::SimdShift          465      0.03%     71.08% # Class of committed instruction (Count)
system.cpu.commit.committedInstType_0::SimdShiftAcc            0      0.00%     71.08% # Class of committed instruction (Count)
system.cpu.commit.committedInstType_0::SimdDiv            0      0.00%     71.08% # Class of committed instruction (Count)
system.cpu.commit.committedInstType_0::SimdSqrt            0      0.00%     71.08% # Class of committed instruction (Count)
system.cpu.commit.committedInstType_0::SimdFloatAdd        72375      5.23%     76.30% # Class of committed instruction (Count)
system.cpu.commit.committedInstType_0::SimdFloatAlu            0      0.00%     76.30% # Class of committed instruction (Count)
system.cpu.commit.committedInstType_0::SimdFloatCmp            0      0.00%     76.30% # Class of committed instruction (Count)
system.cpu.commit.committedInstType_0::SimdFloatCvt         6002      0.43%     76.74% # Class of committed instruction (Count)
system.cpu.commit.committedInstType_0::SimdFloatDiv         1058      0.08%     76.81% # Class of committed instruction (Count)
system.cpu.commit.committedInstType_0::SimdFloatMisc            0      0.00%     76.81% # Class of committed instruction (Count)
system.cpu.commit.committedInstType_0::SimdFloatMult        60351      4.36%     81.17% # Class of committed instruction (Count)
system.cpu.commit.committedInstType_0::SimdFloatMultAcc            0      0.00%     81.17% # Class of committed instruction (Count)
system.cpu.commit.committedInstType_0::SimdFloatMatMultAcc            0      0.00%     81.17% # Class of committed instruction (Count)
system.cpu.commit.committedInstType_0::SimdFloatSqrt            0      0.00%     81.17% # Class of committed instruction (Count)
system.cpu.commit.committedInstType_0::SimdReduceAdd            0      0.00%     81.17% # Class of committed instruction (Count)
system.cpu.commit.committedInstType_0::SimdReduceAlu            0      0.00%     81.17% # Class of committed instruction (Count)
system.cpu.commit.committedInstType_0::SimdReduceCmp            0      0.00%     81.17% # Class of committed instruction (Count)
system.cpu.commit.committedInstType_0::SimdFloatReduceAdd            0      0.00%     81.17% # Class of committed instruction (Count)
system.cpu.commit.committedInstType_0::SimdFloatReduceCmp            0      0.00%     81.17% # Class of committed instruction (Count)
system.cpu.commit.committedInstType_0::SimdAes            0      0.00%     81.17% # Class of committed instruction (Count)
system.cpu.commit.committedInstType_0::SimdAesMix            0      0.00%     81.17% # Class of committed instruction (Count)
system.cpu.commit.committedInstType_0::SimdSha1Hash            0      0.00%     81.17% # Class of committed instruction (Count)
system.cpu.commit.committedInstType_0::SimdSha1Hash2            0      0.00%     81.17% # Class of committed instruction (Count)
system.cpu.commit.committedInstType_0::SimdSha256Hash            0      0.00%     81.17% # Class of committed instruction (Count)
system.cpu.commit.committedInstType_0::SimdSha256Hash2            0      0.00%     81.17% # Class of committed instruction (Count)
system.cpu.commit.committedInstType_0::SimdShaSigma2            0      0.00%     81.17% # Class of committed instruction (Count)
system.cpu.commit.committedInstType_0::SimdShaSigma3            0      0.00%     81.17% # Class of committed instruction (Count)
system.cpu.commit.committedInstType_0::SimdPredAlu            0      0.00%     81.17% # Class of committed instruction (Count)
system.cpu.commit.committedInstType_0::Matrix            0      0.00%     81.17% # Class of committed instruction (Count)
system.cpu.commit.committedInstType_0::MatrixMov            0      0.00%     81.17% # Class of committed instruction (Count)
system.cpu.commit.committedInstType_0::MatrixOP            0      0.00%     81.17% # Class of committed instruction (Count)
system.cpu.commit.committedInstType_0::MemRead        86100      6.22%     87.39% # Class of committed instruction (Count)
system.cpu.commit.committedInstType_0::MemWrite        43221      3.12%     90.52% # Class of committed instruction (Count)
system.cpu.commit.committedInstType_0::FloatMemRead        88596      6.40%     96.92% # Class of committed instruction (Count)
system.cpu.commit.committedInstType_0::FloatMemWrite        42706      3.08%    100.00% # Class of committed instruction (Count)
system.cpu.commit.committedInstType_0::IprAccess            0      0.00%    100.00% # Class of committed instruction (Count)
system.cpu.commit.committedInstType_0::InstPrefetch            0      0.00%    100.00% # Class of committed instruction (Count)
system.cpu.commit.committedInstType_0::SimdUnitStrideLoad            0      0.00%    100.00% # Class of committed instruction (Count)
system.cpu.commit.committedInstType_0::SimdUnitStrideStore            0      0.00%    100.00% # Class of committed instruction (Count)
system.cpu.commit.committedInstType_0::SimdUnitStrideMaskLoad            0      0.00%    100.00% # Class of committed instruction (Count)
system.cpu.commit.committedInstType_0::SimdUnitStrideMaskStore            0      0.00%    100.00% # Class of committed instruction (Count)
system.cpu.commit.committedInstType_0::SimdStridedLoad            0      0.00%    100.00% # Class of committed instruction (Count)
system.cpu.commit.committedInstType_0::SimdStridedStore            0      0.00%    100.00% # Class of committed instruction (Count)
system.cpu.commit.committedInstType_0::SimdIndexedLoad            0      0.00%    100.00% # Class of committed instruction (Count)
system.cpu.commit.committedInstType_0::SimdIndexedStore            0      0.00%    100.00% # Class of committed instruction (Count)
system.cpu.commit.committedInstType_0::SimdWholeRegisterLoad            0      0.00%    100.00% # Class of committed instruction (Count)
system.cpu.commit.committedInstType_0::SimdWholeRegisterStore            0      0.00%    100.00% # Class of committed instruction (Count)
system.cpu.commit.committedInstType_0::SimdUnitStrideFaultOnlyFirstLoad            0      0.00%    100.00% # Class of committed instruction (Count)
system.cpu.commit.committedInstType_0::SimdUnitStrideSegmentedLoad            0      0.00%    100.00% # Class of committed instruction (Count)
system.cpu.commit.committedInstType_0::SimdUnitStrideSegmentedStore            0      0.00%    100.00% # Class of committed instruction (Count)
system.cpu.commit.committedInstType_0::SimdExt            0      0.00%    100.00% # Class of committed instruction (Count)
system.cpu.commit.committedInstType_0::SimdFloatExt            0      0.00%    100.00% # Class of committed instruction (Count)
system.cpu.commit.committedInstType_0::SimdConfig            0      0.00%    100.00% # Class of committed instruction (Count)
system.cpu.commit.committedInstType_0::total      1384317                       # Class of committed instruction (Count)
system.cpu.commit.commitEligibleSamples        249778                       # number cycles where commit BW limit reached (Cycle)
system.cpu.commitStats0.numInsts               760674                       # Number of instructions committed (thread level) (Count)
system.cpu.commitStats0.numOps                1384317                       # Number of ops (including micro ops) committed (thread level) (Count)
system.cpu.commitStats0.numInstsNotNOP         760674                       # Number of instructions committed excluding NOPs or prefetches (Count)
system.cpu.commitStats0.numOpsNotNOP          1384317                       # Number of Ops (including micro ops) Simulated (Count)
system.cpu.commitStats0.cpi                  1.166001                       # CPI: cycles per instruction (thread level) ((Cycle/Count))
system.cpu.commitStats0.ipc                  0.857632                       # IPC: instructions per cycle (thread level) ((Count/Cycle))
system.cpu.commitStats0.numMemRefs             260623                       # Number of memory references committed (Count)
system.cpu.commitStats0.numFpInsts             443947                       # Number of float instructions (Count)
system.cpu.commitStats0.numIntInsts           1075336                       # Number of integer instructions (Count)
system.cpu.commitStats0.numLoadInsts           174696                       # Number of load instructions (Count)
system.cpu.commitStats0.numStoreInsts           85927                       # Number of store instructions (Count)
system.cpu.commitStats0.numVecInsts                 0                       # Number of vector instructions (Count)
system.cpu.commitStats0.committedInstType::No_OpClass         5551      0.40%      0.40% # Class of committed instruction. (Count)
system.cpu.commitStats0.committedInstType::IntAlu       884219     63.87%     64.28% # Class of committed instruction. (Count)
system.cpu.commitStats0.committedInstType::IntMult         3013      0.22%     64.49% # Class of committed instruction. (Count)
system.cpu.commitStats0.committedInstType::IntDiv         4084      0.30%     64.79% # Class of committed instruction. (Count)
system.cpu.commitStats0.committedInstType::FloatAdd        32959      2.38%     67.17% # Class of committed instruction. (Count)
system.cpu.commitStats0.committedInstType::FloatCmp            0      0.00%     67.17% # Class of committed instruction. (Count)
system.cpu.commitStats0.committedInstType::FloatCvt          336      0.02%     67.19% # Class of committed instruction. (Count)
system.cpu.commitStats0.committedInstType::FloatMult            0      0.00%     67.19% # Class of committed instruction. (Count)
system.cpu.commitStats0.committedInstType::FloatMultAcc            0      0.00%     67.19% # Class of committed instruction. (Count)
system.cpu.commitStats0.committedInstType::FloatDiv            0      0.00%     67.19% # Class of committed instruction. (Count)
system.cpu.commitStats0.committedInstType::FloatMisc            0      0.00%     67.19% # Class of committed instruction. (Count)
system.cpu.commitStats0.committedInstType::FloatSqrt            0      0.00%     67.19% # Class of committed instruction. (Count)
system.cpu.commitStats0.committedInstType::SimdAdd          664      0.05%     67.24% # Class of committed instruction. (Count)
system.cpu.commitStats0.committedInstType::SimdAddAcc            0      0.00%     67.24% # Class of committed instruction. (Count)
system.cpu.commitStats0.committedInstType::SimdAlu        27304      1.97%     69.21% # Class of committed instruction. (Count)
system.cpu.commitStats0.committedInstType::SimdCmp            0      0.00%     69.21% # Class of committed instruction. (Count)
system.cpu.commitStats0.committedInstType::SimdCvt         1898      0.14%     69.35% # Class of committed instruction. (Count)
system.cpu.commitStats0.committedInstType::SimdMisc        23415      1.69%     71.04% # Class of committed instruction. (Count)
system.cpu.commitStats0.committedInstType::SimdMult            0      0.00%     71.04% # Class of committed instruction. (Count)
system.cpu.commitStats0.committedInstType::SimdMultAcc            0      0.00%     71.04% # Class of committed instruction. (Count)
system.cpu.commitStats0.committedInstType::SimdMatMultAcc            0      0.00%     71.04% # Class of committed instruction. (Count)
system.cpu.commitStats0.committedInstType::SimdShift          465      0.03%     71.08% # Class of committed instruction. (Count)
system.cpu.commitStats0.committedInstType::SimdShiftAcc            0      0.00%     71.08% # Class of committed instruction. (Count)
system.cpu.commitStats0.committedInstType::SimdDiv            0      0.00%     71.08% # Class of committed instruction. (Count)
system.cpu.commitStats0.committedInstType::SimdSqrt            0      0.00%     71.08% # Class of committed instruction. (Count)
system.cpu.commitStats0.committedInstType::SimdFloatAdd        72375      5.23%     76.30% # Class of committed instruction. (Count)
system.cpu.commitStats0.committedInstType::SimdFloatAlu            0      0.00%     76.30% # Class of committed instruction. (Count)
system.cpu.commitStats0.committedInstType::SimdFloatCmp            0      0.00%     76.30% # Class of committed instruction. (Count)
system.cpu.commitStats0.committedInstType::SimdFloatCvt         6002      0.43%     76.74% # Class of committed instruction. (Count)
system.cpu.commitStats0.committedInstType::SimdFloatDiv         1058      0.08%     76.81% # Class of committed instruction. (Count)
system.cpu.commitStats0.committedInstType::SimdFloatMisc            0      0.00%     76.81% # Class of committed instruction. (Count)
system.cpu.commitStats0.committedInstType::SimdFloatMult        60351      4.36%     81.17% # Class of committed instruction. (Count)
system.cpu.commitStats0.committedInstType::SimdFloatMultAcc            0      0.00%     81.17% # Class of committed instruction. (Count)
system.cpu.commitStats0.committedInstType::SimdFloatMatMultAcc            0      0.00%     81.17% # Class of committed instruction. (Count)
system.cpu.commitStats0.committedInstType::SimdFloatSqrt            0      0.00%     81.17% # Class of committed instruction. (Count)
system.cpu.commitStats0.committedInstType::SimdReduceAdd            0      0.00%     81.17% # Class of committed instruction. (Count)
system.cpu.commitStats0.committedInstType::SimdReduceAlu            0      0.00%     81.17% # Class of committed instruction. (Count)
system.cpu.commitStats0.committedInstType::SimdReduceCmp            0      0.00%     81.17% # Class of committed instruction. (Count)
system.cpu.commitStats0.committedInstType::SimdFloatReduceAdd            0      0.00%     81.17% # Class of committed instruction. (Count)
system.cpu.commitStats0.committedInstType::SimdFloatReduceCmp            0      0.00%     81.17% # Class of committed instruction. (Count)
system.cpu.commitStats0.committedInstType::SimdAes            0      0.00%     81.17% # Class of committed instruction. (Count)
system.cpu.commitStats0.committedInstType::SimdAesMix            0      0.00%     81.17% # Class of committed instruction. (Count)
system.cpu.commitStats0.committedInstType::SimdSha1Hash            0      0.00%     81.17% # Class of committed instruction. (Count)
system.cpu.commitStats0.committedInstType::SimdSha1Hash2            0      0.00%     81.17% # Class of committed instruction. (Count)
system.cpu.commitStats0.committedInstType::SimdSha256Hash            0      0.00%     81.17% # Class of committed instruction. (Count)
system.cpu.commitStats0.committedInstType::SimdSha256Hash2            0      0.00%     81.17% # Class of committed instruction. (Count)
system.cpu.commitStats0.committedInstType::SimdShaSigma2            0      0.00%     81.17% # Class of committed instruction. (Count)
system.cpu.commitStats0.committedInstType::SimdShaSigma3            0      0.00%     81.17% # Class of committed instruction. (Count)
system.cpu.commitStats0.committedInstType::SimdPredAlu            0      0.00%     81.17% # Class of committed instruction. (Count)
system.cpu.commitStats0.committedInstType::Matrix            0      0.00%     81.17% # Class of committed instruction. (Count)
system.cpu.commitStats0.committedInstType::MatrixMov            0      0.00%     81.17% # Class of committed instruction. (Count)
system.cpu.commitStats0.committedInstType::MatrixOP            0      0.00%     81.17% # Class of committed instruction. (Count)
system.cpu.commitStats0.committedInstType::MemRead        86100      6.22%     87.39% # Class of committed instruction. (Count)
system.cpu.commitStats0.committedInstType::MemWrite        43221      3.12%     90.52% # Class of committed instruction. (Count)
system.cpu.commitStats0.committedInstType::FloatMemRead        88596      6.40%     96.92% # Class of committed instruction. (Count)
system.cpu.commitStats0.committedInstType::FloatMemWrite        42706      3.08%    100.00% # Class of committed instruction. (Count)
system.cpu.commitStats0.committedInstType::IprAccess            0      0.00%    100.00% # Class of committed instruction. (Count)
system.cpu.commitStats0.committedInstType::InstPrefetch            0      0.00%    100.00% # Class of committed instruction. (Count)
system.cpu.commitStats0.committedInstType::SimdUnitStrideLoad            0      0.00%    100.00% # Class of committed instruction. (Count)
system.cpu.commitStats0.committedInstType::SimdUnitStrideStore            0      0.00%    100.00% # Class of committed instruction. (Count)
system.cpu.commitStats0.committedInstType::SimdUnitStrideMaskLoad            0      0.00%    100.00% # Class of committed instruction. (Count)
system.cpu.commitStats0.committedInstType::SimdUnitStrideMaskStore            0      0.00%    100.00% # Class of committed instruction. (Count)
system.cpu.commitStats0.committedInstType::SimdStridedLoad            0      0.00%    100.00% # Class of committed instruction. (Count)
system.cpu.commitStats0.committedInstType::SimdStridedStore            0      0.00%    100.00% # Class of committed instruction. (Count)
system.cpu.commitStats0.committedInstType::SimdIndexedLoad            0      0.00%    100.00% # Class of committed instruction. (Count)
system.cpu.commitStats0.committedInstType::SimdIndexedStore            0      0.00%    100.00% # Class of committed instruction. (Count)
system.cpu.commitStats0.committedInstType::SimdWholeRegisterLoad            0      0.00%    100.00% # Class of committed instruction. (Count)
system.cpu.commitStats0.committedInstType::SimdWholeRegisterStore            0      0.00%    100.00% # Class of committed instruction. (Count)
system.cpu.commitStats0.committedInstType::SimdUnitStrideFaultOnlyFirstLoad            0      0.00%    100.00% # Class of committed instruction. (Count)
system.cpu.commitStats0.committedInstType::SimdUnitStrideSegmentedLoad            0      0.00%    100.00% # Class of committed instruction. (Count)
system.cpu.commitStats0.committedInstType::SimdUnitStrideSegmentedStore            0      0.00%    100.00% # Class of committed instruction. (Count)
system.cpu.commitStats0.committedInstType::SimdExt            0      0.00%    100.00% # Class of committed instruction. (Count)
system.cpu.commitStats0.committedInstType::SimdFloatExt            0      0.00%    100.00% # Class of committed instruction. (Count)
system.cpu.commitStats0.committedInstType::SimdConfig            0      0.00%    100.00% # Class of committed instruction. (Count)
system.cpu.commitStats0.committedInstType::total      1384317                       # Class of committed instruction. (Count)
system.cpu.commitStats0.committedControl::IsControl        98285                       # Class of control type instructions committed (Count)
system.cpu.commitStats0.committedControl::IsDirectControl        85287                       # Class of control type instructions committed (Count)
system.cpu.commitStats0.committedControl::IsIndirectControl        12947                       # Class of control type instructions committed (Count)
system.cpu.commitStats0.committedControl::IsCondControl        71852                       # Class of control type instructions committed (Count)
system.cpu.commitStats0.committedControl::IsUncondControl        26382                       # Class of control type instructions committed (Count)
system.cpu.commitStats0.committedControl::IsCall         9010                       # Class of control type instructions committed (Count)
system.cpu.commitStats0.committedControl::IsReturn         9004                       # Class of control type instructions committed (Count)
system.cpu.dcache.demandHits::cpu.data         221225                       # number of demand (read+write) hits (Count)
system.cpu.dcache.demandHits::total            221225                       # number of demand (read+write) hits (Count)
system.cpu.dcache.overallHits::cpu.data        221225                       # number of overall hits (Count)
system.cpu.dcache.overallHits::total           221225                       # number of overall hits (Count)
system.cpu.dcache.demandMisses::cpu.data        24746                       # number of demand (read+write) misses (Count)
system.cpu.dcache.demandMisses::total           24746                       # number of demand (read+write) misses (Count)
system.cpu.dcache.overallMisses::cpu.data        24746                       # number of overall misses (Count)
system.cpu.dcache.overallMisses::total          24746                       # number of overall misses (Count)
system.cpu.dcache.demandMissLatency::cpu.data    386685491                       # number of demand (read+write) miss ticks (Tick)
system.cpu.dcache.demandMissLatency::total    386685491                       # number of demand (read+write) miss ticks (Tick)
system.cpu.dcache.overallMissLatency::cpu.data    386685491                       # number of overall miss ticks (Tick)
system.cpu.dcache.overallMissLatency::total    386685491                       # number of overall miss ticks (Tick)
[...]
system.mem_ctrl.requestorReadAvgLat::cpu.inst     26416.82                       # Per-requestor read average memory access latency ((Tick/Count))
system.mem_ctrl.requestorReadAvgLat::cpu.data     26509.57                       # Per-requestor read average memory access latency ((Tick/Count))
system.mem_ctrl.dram.bytesRead::cpu.inst       103680                       # Number of bytes read from this memory (Byte)
system.mem_ctrl.dram.bytesRead::cpu.data       163904                       # Number of bytes read from this memory (Byte)
system.mem_ctrl.dram.bytesRead::total          267584                       # Number of bytes read from this memory (Byte)
system.mem_ctrl.dram.bytesInstRead::cpu.inst       103680                       # Number of instructions bytes read from this memory (Byte)
system.mem_ctrl.dram.bytesInstRead::total       103680                       # Number of instructions bytes read from this memory (Byte)
system.mem_ctrl.dram.numReads::cpu.inst          1620                       # Number of read requests responded to by this memory (Count)
system.mem_ctrl.dram.numReads::cpu.data          2561                       # Number of read requests responded to by this memory (Count)
system.mem_ctrl.dram.numReads::total             4181                       # Number of read requests responded to by this memory (Count)
system.mem_ctrl.dram.bwRead::cpu.inst       233791009                       # Total read bandwidth from this memory ((Byte/Second))
system.mem_ctrl.dram.bwRead::cpu.data       369591835                       # Total read bandwidth from this memory ((Byte/Second))
system.mem_ctrl.dram.bwRead::total          603382844                       # Total read bandwidth from this memory ((Byte/Second))
system.mem_ctrl.dram.bwInstRead::cpu.inst    233791009                       # Instruction read bandwidth from this memory ((Byte/Second))
system.mem_ctrl.dram.bwInstRead::total      233791009                       # Instruction read bandwidth from this memory ((Byte/Second))
system.mem_ctrl.dram.bwTotal::cpu.inst      233791009                       # Total bandwidth to/from this memory ((Byte/Second))
system.mem_ctrl.dram.bwTotal::cpu.data      369591835                       # Total bandwidth to/from this memory ((Byte/Second))
system.mem_ctrl.dram.bwTotal::total         603382844                       # Total bandwidth to/from this memory ((Byte/Second))
system.mem_ctrl.dram.readBursts                  4181                       # Number of DRAM read bursts (Count)
system.mem_ctrl.dram.writeBursts                    0                       # Number of DRAM write bursts (Count)
system.mem_ctrl.dram.perBankRdBursts::0           334                       # Per bank write bursts (Count)
system.mem_ctrl.dram.perBankRdBursts::1           359                       # Per bank write bursts (Count)
system.mem_ctrl.dram.perBankRdBursts::2           184                       # Per bank write bursts (Count)
system.mem_ctrl.dram.perBankRdBursts::3           152                       # Per bank write bursts (Count)
system.mem_ctrl.dram.perBankRdBursts::4           174                       # Per bank write bursts (Count)
system.mem_ctrl.dram.perBankRdBursts::5           268                       # Per bank write bursts (Count)
system.mem_ctrl.dram.perBankRdBursts::6           268                       # Per bank write bursts (Count)
system.mem_ctrl.dram.perBankRdBursts::7           252                       # Per bank write bursts (Count)
system.mem_ctrl.dram.perBankRdBursts::8           282                       # Per bank write bursts (Count)
system.mem_ctrl.dram.perBankRdBursts::9           153                       # Per bank write bursts (Count)
system.mem_ctrl.dram.perBankRdBursts::10          220                       # Per bank write bursts (Count)
system.mem_ctrl.dram.perBankRdBursts::11          205                       # Per bank write bursts (Count)
system.mem_ctrl.dram.perBankRdBursts::12          357                       # Per bank write bursts (Count)
system.mem_ctrl.dram.perBankRdBursts::13          284                       # Per bank write bursts (Count)
system.mem_ctrl.dram.perBankRdBursts::14          269                       # Per bank write bursts (Count)
system.mem_ctrl.dram.perBankRdBursts::15          420                       # Per bank write bursts (Count)
system.mem_ctrl.dram.perBankWrBursts::0             0                       # Per bank write bursts (Count)
system.mem_ctrl.dram.perBankWrBursts::1             0                       # Per bank write bursts (Count)
system.mem_ctrl.dram.perBankWrBursts::2             0                       # Per bank write bursts (Count)
system.mem_ctrl.dram.perBankWrBursts::3             0                       # Per bank write bursts (Count)
system.mem_ctrl.dram.perBankWrBursts::4             0                       # Per bank write bursts (Count)
system.mem_ctrl.dram.perBankWrBursts::5             0                       # Per bank write bursts (Count)
system.mem_ctrl.dram.perBankWrBursts::6             0                       # Per bank write bursts (Count)
system.mem_ctrl.dram.perBankWrBursts::7             0                       # Per bank write bursts (Count)
system.mem_ctrl.dram.perBankWrBursts::8             0                       # Per bank write bursts (Count)
system.mem_ctrl.dram.perBankWrBursts::9             0                       # Per bank write bursts (Count)
system.mem_ctrl.dram.perBankWrBursts::10            0                       # Per bank write bursts (Count)
system.mem_ctrl.dram.perBankWrBursts::11            0                       # Per bank write bursts (Count)
system.mem_ctrl.dram.perBankWrBursts::12            0                       # Per bank write bursts (Count)
system.mem_ctrl.dram.perBankWrBursts::13            0                       # Per bank write bursts (Count)
system.mem_ctrl.dram.perBankWrBursts::14            0                       # Per bank write bursts (Count)
system.mem_ctrl.dram.perBankWrBursts::15            0                       # Per bank write bursts (Count)
system.mem_ctrl.dram.totQLat                 32292500                       # Total ticks spent queuing (Tick)
system.mem_ctrl.dram.totBusLat               20905000                       # Total ticks spent in databus transfers (Tick)
system.mem_ctrl.dram.totMemAccLat           110686250                       # Total ticks spent from burst creation until serviced by the DRAM (Tick)
system.mem_ctrl.dram.avgQLat                  7723.63                       # Average queueing delay per DRAM burst ((Tick/Count))
system.mem_ctrl.dram.avgBusLat                5000.00                       # Average bus latency per DRAM burst ((Tick/Count))
system.mem_ctrl.dram.avgMemAccLat            26473.63                       # Average memory access latency per DRAM burst ((Tick/Count))
system.mem_ctrl.dram.readRowHits                 3334                       # Number of row buffer hits during reads (Count)
system.mem_ctrl.dram.writeRowHits                   0                       # Number of row buffer hits during writes (Count)
system.mem_ctrl.dram.readRowHitRate             79.74                       # Row buffer hit rate for reads (Ratio)
system.mem_ctrl.dram.writeRowHitRate              nan                       # Row buffer hit rate for writes (Ratio)
system.mem_ctrl.dram.bytesPerActivate::samples          833                       # Bytes accessed per row activation (Byte)
system.mem_ctrl.dram.bytesPerActivate::mean   318.079232                       # Bytes accessed per row activation (Byte)
system.mem_ctrl.dram.bytesPerActivate::gmean   193.790373                       # Bytes accessed per row activation (Byte)
system.mem_ctrl.dram.bytesPerActivate::stdev   320.509208                       # Bytes accessed per row activation (Byte)
system.mem_ctrl.dram.bytesPerActivate::0-127          280     33.61%     33.61% # Bytes accessed per row activation (Byte)
system.mem_ctrl.dram.bytesPerActivate::128-255          202     24.25%     57.86% # Bytes accessed per row activation (Byte)
system.mem_ctrl.dram.bytesPerActivate::256-383          103     12.36%     70.23% # Bytes accessed per row activation (Byte)
system.mem_ctrl.dram.bytesPerActivate::384-511           52      6.24%     76.47% # Bytes accessed per row activation (Byte)
system.mem_ctrl.dram.bytesPerActivate::512-639           36      4.32%     80.79% # Bytes accessed per row activation (Byte)
system.mem_ctrl.dram.bytesPerActivate::640-767           27      3.24%     84.03% # Bytes accessed per row activation (Byte)
system.mem_ctrl.dram.bytesPerActivate::768-895           30      3.60%     87.64% # Bytes accessed per row activation (Byte)
system.mem_ctrl.dram.bytesPerActivate::896-1023           16      1.92%     89.56% # Bytes accessed per row activation (Byte)
system.mem_ctrl.dram.bytesPerActivate::1024-1151           87     10.44%    100.00% # Bytes accessed per row activation (Byte)
system.mem_ctrl.dram.bytesPerActivate::total          833                       # Bytes accessed per row activation (Byte)
system.mem_ctrl.dram.dramBytesRead             267584                       # Total bytes read (Byte)
system.mem_ctrl.dram.dramBytesWritten               0                       # Total bytes written (Byte)
system.mem_ctrl.dram.avgRdBW               603.382844                       # Average DRAM read bandwidth in MiBytes/s ((Byte/Second))
system.mem_ctrl.dram.avgWrBW                        0                       # Average DRAM write bandwidth in MiBytes/s ((Byte/Second))
system.mem_ctrl.dram.peakBW                  12800.00                       # Theoretical peak bandwidth in MiByte/s ((Byte/Second))
system.mem_ctrl.dram.busUtil                     4.71                       # Data bus utilization in percentage (Ratio)
system.mem_ctrl.dram.busUtilRead                 4.71                       # Data bus utilization in percentage for reads (Ratio)
system.mem_ctrl.dram.busUtilWrite                0.00                       # Data bus utilization in percentage for writes (Ratio)
system.mem_ctrl.dram.pageHitRate                79.74                       # Row buffer hit rate, read and write combined (Ratio)
system.mem_ctrl.dram.power_state.pwrStateResidencyTicks::UNDEFINED    443473000                       # Cumulative time (in ticks) in various power states (Tick)
system.mem_ctrl.dram.rank0.actEnergy          3055920                       # Energy for activate commands per rank (pJ) (Joule)
system.mem_ctrl.dram.rank0.preEnergy          1597695                       # Energy for precharge commands per rank (pJ) (Joule)
system.mem_ctrl.dram.rank0.readEnergy        14215740                       # Energy for read commands per rank (pJ) (Joule)
system.mem_ctrl.dram.rank0.writeEnergy              0                       # Energy for write commands per rank (pJ) (Joule)
system.mem_ctrl.dram.rank0.refreshEnergy 34419840.000000                       # Energy for refresh commands per rank (pJ) (Joule)
system.mem_ctrl.dram.rank0.actBackEnergy    145904610                       # Energy for active background per rank (pJ) (Joule)
system.mem_ctrl.dram.rank0.preBackEnergy     47426880                       # Energy for precharge background per rank (pJ) (Joule)
system.mem_ctrl.dram.rank0.actPowerDownEnergy            0                       # Energy for active power-down per rank (pJ) (Joule)
system.mem_ctrl.dram.rank0.prePowerDownEnergy            0                       # Energy for precharge power-down per rank (pJ) (Joule)
system.mem_ctrl.dram.rank0.selfRefreshEnergy            0                       # Energy for self refresh per rank (pJ) (Joule)
system.mem_ctrl.dram.rank0.totalEnergy      246620685                       # Total energy per rank (pJ) (Joule)
system.mem_ctrl.dram.rank0.averagePower    556.112063                       # Core power per rank (mW) (Watt)
system.mem_ctrl.dram.rank0.totalIdleTime            0                       # Total Idle time Per DRAM Rank (Tick)
system.mem_ctrl.dram.rank0.pwrStateTime::IDLE    121967500                       # Time in different power states (Tick)
system.mem_ctrl.dram.rank0.pwrStateTime::REF     14560000                       # Time in different power states (Tick)
system.mem_ctrl.dram.rank0.pwrStateTime::SREF            0                       # Time in different power states (Tick)
system.mem_ctrl.dram.rank0.pwrStateTime::PRE_PDN            0                       # Time in different power states (Tick)
system.mem_ctrl.dram.rank0.pwrStateTime::ACT    306945500                       # Time in different power states (Tick)
system.mem_ctrl.dram.rank0.pwrStateTime::ACT_PDN            0                       # Time in different power states (Tick)
system.mem_ctrl.dram.rank1.actEnergy          2991660                       # Energy for activate commands per rank (pJ) (Joule)
system.mem_ctrl.dram.rank1.preEnergy          1563540                       # Energy for precharge commands per rank (pJ) (Joule)
system.mem_ctrl.dram.rank1.readEnergy        15636600                       # Energy for read commands per rank (pJ) (Joule)
system.mem_ctrl.dram.rank1.writeEnergy              0                       # Energy for write commands per rank (pJ) (Joule)
system.mem_ctrl.dram.rank1.refreshEnergy 34419840.000000                       # Energy for refresh commands per rank (pJ) (Joule)
system.mem_ctrl.dram.rank1.actBackEnergy    155791260                       # Energy for active background per rank (pJ) (Joule)
system.mem_ctrl.dram.rank1.preBackEnergy     39101280                       # Energy for precharge background per rank (pJ) (Joule)
system.mem_ctrl.dram.rank1.actPowerDownEnergy            0                       # Energy for active power-down per rank (pJ) (Joule)
system.mem_ctrl.dram.rank1.prePowerDownEnergy            0                       # Energy for precharge power-down per rank (pJ) (Joule)
system.mem_ctrl.dram.rank1.selfRefreshEnergy            0                       # Energy for self refresh per rank (pJ) (Joule)
system.mem_ctrl.dram.rank1.totalEnergy      249504180                       # Total energy per rank (pJ) (Joule)
system.mem_ctrl.dram.rank1.averagePower    562.614139                       # Core power per rank (mW) (Watt)
system.mem_ctrl.dram.rank1.totalIdleTime            0                       # Total Idle time Per DRAM Rank (Tick)
system.mem_ctrl.dram.rank1.pwrStateTime::IDLE    100248750                       # Time in different power states (Tick)
system.mem_ctrl.dram.rank1.pwrStateTime::REF     14560000                       # Time in different power states (Tick)
system.mem_ctrl.dram.rank1.pwrStateTime::SREF            0                       # Time in different power states (Tick)
system.mem_ctrl.dram.rank1.pwrStateTime::PRE_PDN            0                       # Time in different power states (Tick)
system.mem_ctrl.dram.rank1.pwrStateTime::ACT    328664250                       # Time in different power states (Tick)
system.mem_ctrl.dram.rank1.pwrStateTime::ACT_PDN            0                       # Time in different power states (Tick)
system.mem_ctrl.power_state.pwrStateResidencyTicks::UNDEFINED    443473000                       # Cumulative time (in ticks) in various power states (Tick)
system.membus.transDist::ReadResp                3021                       # Transaction distribution (Count)
system.membus.transDist::ReadExReq               1160                       # Transaction distribution (Count)
system.membus.transDist::ReadExResp              1160                       # Transaction distribution (Count)
system.membus.transDist::ReadSharedReq           3021                       # Transaction distribution (Count)
system.membus.pktCount_system.l2cache.mem_side_port::system.mem_ctrl.port         8362                       # Packet count per connected requestor and responder (Count)
system.membus.pktCount_system.l2cache.mem_side_port::total         8362                       # Packet count per connected requestor and responder (Count)
system.membus.pktCount::total                    8362                       # Packet count per connected requestor and responder (Count)
system.membus.pktSize_system.l2cache.mem_side_port::system.mem_ctrl.port       267584                       # Cumulative packet size per connected requestor and responder (Byte)
system.membus.pktSize_system.l2cache.mem_side_port::total       267584                       # Cumulative packet size per connected requestor and responder (Byte)
system.membus.pktSize::total                   267584                       # Cumulative packet size per connected requestor and responder (Byte)
system.membus.snoops                                0                       # Total snoops (Count)
system.membus.snoopTraffic                          0                       # Total snoop traffic (Byte)
system.membus.snoopFanout::samples               4181                       # Request fanout histogram (Count)
system.membus.snoopFanout::mean                     0                       # Request fanout histogram (Count)
system.membus.snoopFanout::stdev                    0                       # Request fanout histogram (Count)
system.membus.snoopFanout::underflows               0      0.00%      0.00% # Request fanout histogram (Count)
system.membus.snoopFanout::0                     4181    100.00%    100.00% # Request fanout histogram (Count)
system.membus.snoopFanout::1                        0      0.00%    100.00% # Request fanout histogram (Count)
system.membus.snoopFanout::overflows                0      0.00%    100.00% # Request fanout histogram (Count)
system.membus.snoopFanout::min_value                0                       # Request fanout histogram (Count)
system.membus.snoopFanout::max_value                0                       # Request fanout histogram (Count)
system.membus.snoopFanout::total                 4181                       # Request fanout histogram (Count)
system.membus.power_state.pwrStateResidencyTicks::UNDEFINED    443473000                       # Cumulative time (in ticks) in various power states (Tick)
system.membus.reqLayer2.occupancy             2090500                       # Layer occupancy (ticks) (Tick)
system.membus.reqLayer2.utilization               0.0                       # Layer utilization (Ratio)
system.membus.respLayer0.occupancy           11366750                       # Layer occupancy (ticks) (Tick)
system.membus.respLayer0.utilization              0.0                       # Layer utilization (Ratio)
system.membus.snoop_filter.totRequests           4181                       # Total number of requests made to the snoop filter. (Count)
system.membus.snoop_filter.hitSingleRequests            0                       # Number of requests hitting in the snoop filter with a single holder of the requested data. (Count)
system.membus.snoop_filter.hitMultiRequests            0                       # Number of requests hitting in the snoop filter with multiple (>1) holders of the requested data. (Count)
system.membus.snoop_filter.totSnoops                0                       # Total number of snoops made to the snoop filter. (Count)
system.membus.snoop_filter.hitSingleSnoops            0                       # Number of snoops hitting in the snoop filter with a single holder of the requested data. (Count)
system.membus.snoop_filter.hitMultiSnoops            0                       # Number of snoops hitting in the snoop filter with multiple (>1) holders of the requested data. (Count)
system.workload.inst.arm                            0                       # number of arm instructions executed (Count)
system.workload.inst.quiesce                        0                       # number of quiesce instructions executed (Count)
system.cpu.dcache.decays                        10547                       # Number of decays (Unspecified)

---------- End Simulation Statistics   ----------
