gem5 Simulator System.  https://www.gem5.org
gem5 is copyrighted software; use the --copyright option for details.

gem5 version DEVELOP-FOR-25.0
gem5 compiled May  9 2025 14:33:56
gem5 started May  9 2025 17:07:00
gem5 executing on EVAN-DAY-SPECTRE, pid 15133
command line: gem5/build/X86/gem5.opt --outdir=results/jpeg/524288 --redirect-stdout --redirect-stderr gem5/configs/decay_cache/single_rate.py -r 131072 mediabench/jpeg/bin/cjpeg -dct int -progressive -opt mediabench/jpeg/data/testing.ppm -outfile /dev/null

info: Standard input is not a terminal, disabling listeners.
Global frequency set at 1000000000000 ticks per second
Beginning simulation...
Exiting @ tick 165128500 because exiting with last active thread context
