
---------- Begin Simulation Statistics ----------
simSeconds                                   0.000263                       # Number of seconds simulated (Second)
simTicks                                    263082000                       # Number of ticks simulated (Tick)
finalTick                                   263082000                       # Number of ticks from beginning of simulation (restored from checkpoints and never reset) (Tick)
simFreq                                  1000000000000                       # The number of ticks per simulated second ((Tick/Second))
hostSeconds                                      1.88                       # Real time elapsed on the host (Second)
hostTickRate                                139739146                       # The number of ticks simulated per host second (ticks/s) ((Tick/Second))
hostMemory                                     717888                       # Number of bytes of host memory used (Byte)
simInsts                                       227804                       # Number of instructions simulated (Count)
simOps                                         452538                       # Number of ops (including micro ops) simulated (Count)
hostInstRate                                   120995                       # Simulator instruction rate (inst/s) ((Count/Second))
hostOpRate                                     240359                       # Simulator op (including micro ops) rate (op/s) ((Count/Second))
system.clk_domain.clock                           500                       # Clock period in ticks (Tick)
system.clk_domain.voltage_domain.voltage            1                       # Voltage in Volts (Volt)
system.cpu.numCycles                           526165                       # Number of cpu cycles simulated (Cycle)
system.cpu.cpi                               2.309727                       # CPI: cycles per instruction (core level) ((Cycle/Count))
system.cpu.ipc                               0.432952                       # IPC: instructions per cycle (core level) ((Count/Cycle))
system.cpu.numWorkItemsStarted                      0                       # Number of work items this cpu started (Count)
system.cpu.numWorkItemsCompleted                    0                       # Number of work items this cpu completed (Count)
system.cpu.instsAdded                          544131                       # Number of instructions added to the IQ (excludes non-spec) (Count)
system.cpu.nonSpecInstsAdded                      763                       # Number of non-speculative instructions added to the IQ (Count)
system.cpu.instsIssued                         521931                       # Number of instructions issued (Count)
system.cpu.squashedInstsIssued                   1278                       # Number of squashed instructions issued (Count)
system.cpu.squashedInstsExamined                92350                       # Number of squashed instructions iterated over during squash; mainly for profiling (Count)
system.cpu.squashedOperandsExamined            132593                       # Number of squashed operands that are examined and possibly removed from graph (Count)
system.cpu.squashedNonSpecRemoved                  82                       # Number of squashed non-spec instructions that were removed (Count)
system.cpu.numIssuedDist::samples              411646                       # Number of insts issued each cycle (Count)
system.cpu.numIssuedDist::mean               1.267912                       # Number of insts issued each cycle (Count)
system.cpu.numIssuedDist::stdev              1.554103                       # Number of insts issued each cycle (Count)
system.cpu.numIssuedDist::underflows                0      0.00%      0.00% # Number of insts issued each cycle (Count)
system.cpu.numIssuedDist::0                    217301     52.79%     52.79% # Number of insts issued each cycle (Count)
system.cpu.numIssuedDist::1                     40838      9.92%     62.71% # Number of insts issued each cycle (Count)
system.cpu.numIssuedDist::2                     44789     10.88%     73.59% # Number of insts issued each cycle (Count)
system.cpu.numIssuedDist::3                     43357     10.53%     84.12% # Number of insts issued each cycle (Count)
system.cpu.numIssuedDist::4                     65361     15.88%    100.00% # Number of insts issued each cycle (Count)
system.cpu.numIssuedDist::overflows                 0      0.00%    100.00% # Number of insts issued each cycle (Count)
system.cpu.numIssuedDist::min_value                 0                       # Number of insts issued each cycle (Count)
system.cpu.numIssuedDist::max_value                 4                       # Number of insts issued each cycle (Count)
system.cpu.numIssuedDist::total                411646                       # Number of insts issued each cycle (Count)
system.cpu.statFuBusy::No_OpClass                   0                       # attempts to use FU when none available (Count)
system.cpu.statFuBusy::IntAlu                       0                       # attempts to use FU when none available (Count)
system.cpu.statFuBusy::IntMult                      0                       # attempts to use FU when none available (Count)
system.cpu.statFuBusy::IntDiv                       0                       # attempts to use FU when none available (Count)
system.cpu.statFuBusy::FloatAdd                     0                       # attempts to use FU when none available (Count)
system.cpu.statFuBusy::FloatCmp                     0                       # attempts to use FU when none available (Count)
system.cpu.statFuBusy::FloatCvt                     0                       # attempts to use FU when none available (Count)
system.cpu.statFuBusy::FloatMult                    0                       # attempts to use FU when none available (Count)
system.cpu.statFuBusy::FloatMultAcc                 0                       # attempts to use FU when none available (Count)
system.cpu.statFuBusy::FloatDiv                     0                       # attempts to use FU when none available (Count)
system.cpu.statFuBusy::FloatMisc                    0                       # attempts to use FU when none available (Count)
system.cpu.statFuBusy::FloatSqrt                    0                       # attempts to use FU when none available (Count)
system.cpu.statFuBusy::SimdAdd                      0                       # attempts to use FU when none available (Count)
system.cpu.statFuBusy::SimdAddAcc                   0                       # attempts to use FU when none available (Count)
system.cpu.statFuBusy::SimdAlu                      0                       # attempts to use FU when none available (Count)
system.cpu.statFuBusy::SimdCmp                      0                       # attempts to use FU when none available (Count)
system.cpu.statFuBusy::SimdCvt                      0                       # attempts to use FU when none available (Count)
system.cpu.statFuBusy::SimdMisc                     0                       # attempts to use FU when none available (Count)
system.cpu.statFuBusy::SimdMult                     0                       # attempts to use FU when none available (Count)
system.cpu.statFuBusy::SimdMultAcc                  0                       # attempts to use FU when none available (Count)
system.cpu.statFuBusy::SimdMatMultAcc               0                       # attempts to use FU when none available (Count)
system.cpu.statFuBusy::SimdShift                    0                       # attempts to use FU when none available (Count)
system.cpu.statFuBusy::SimdShiftAcc                 0                       # attempts to use FU when none available (Count)
system.cpu.statFuBusy::SimdDiv                      0                       # attempts to use FU when none available (Count)
system.cpu.statFuBusy::SimdSqrt                     0                       # attempts to use FU when none available (Count)
system.cpu.statFuBusy::SimdFloatAdd                 0                       # attempts to use FU when none available (Count)
system.cpu.statFuBusy::SimdFloatAlu                 0                       # attempts to use FU when none available (Count)
system.cpu.statFuBusy::SimdFloatCmp                 0                       # attempts to use FU when none available (Count)
system.cpu.statFuBusy::SimdFloatCvt                 0                       # attempts to use FU when none available (Count)
system.cpu.statFuBusy::SimdFloatDiv                 0                       # attempts to use FU when none available (Count)
system.cpu.statFuBusy::SimdFloatMisc                0                       # attempts to use FU when none available (Count)
system.cpu.statFuBusy::SimdFloatMult                0                       # attempts to use FU when none available (Count)
system.cpu.statFuBusy::SimdFloatMultAcc             0                       # attempts to use FU when none available (Count)
system.cpu.statFuBusy::SimdFloatMatMultAcc            0                       # attempts to use FU when none available (Count)
system.cpu.statFuBusy::SimdFloatSqrt                0                       # attempts to use FU when none available (Count)
system.cpu.statFuBusy::SimdReduceAdd                0                       # attempts to use FU when none available (Count)
system.cpu.statFuBusy::SimdReduceAlu                0                       # attempts to use FU when none available (Count)
system.cpu.statFuBusy::SimdReduceCmp                0                       # attempts to use FU when none available (Count)
system.cpu.statFuBusy::SimdFloatReduceAdd            0                       # attempts to use FU when none available (Count)
system.cpu.statFuBusy::SimdFloatReduceCmp            0                       # attempts to use FU when none available (Count)
system.cpu.statFuBusy::SimdAes                      0                       # attempts to use FU when none available (Count)
system.cpu.statFuBusy::SimdAesMix                   0                       # attempts to use FU when none available (Count)
system.cpu.statFuBusy::SimdSha1Hash                 0                       # attempts to use FU when none available (Count)
system.cpu.statFuBusy::SimdSha1Hash2                0                       # attempts to use FU when none available (Count)
system.cpu.statFuBusy::SimdSha256Hash               0                       # attempts to use FU when none available (Count)
system.cpu.statFuBusy::SimdSha256Hash2              0                       # attempts to use FU when none available (Count)
system.cpu.statFuBusy::SimdShaSigma2                0                       # attempts to use FU when none available (Count)
system.cpu.statFuBusy::SimdShaSigma3                0                       # attempts to use FU when none available (Count)
system.cpu.statFuBusy::SimdPredAlu                  0                       # attempts to use FU when none available (Count)
system.cpu.statFuBusy::Matrix                       0                       # attempts to use FU when none available (Count)
system.cpu.statFuBusy::MatrixMov                    0                       # attempts to use FU when none available (Count)
system.cpu.statFuBusy::MatrixOP                     0                       # attempts to use FU when none available (Count)
system.cpu.statFuBusy::MemRead                      0                       # attempts to use FU when none available (Count)
system.cpu.statFuBusy::MemWrite                     0                       # attempts to use FU when none available (Count)
system.cpu.statFuBusy::FloatMemRead                 0                       # attempts to use FU when none available (Count)
system.cpu.statFuBusy::FloatMemWrite                0                       # attempts to use FU when none available (Count)
system.cpu.statFuBusy::IprAccess                    0                       # attempts to use FU when none available (Count)
system.cpu.statFuBusy::InstPrefetch                 0                       # attempts to use FU when none available (Count)
system.cpu.statFuBusy::SimdUnitStrideLoad            0                       # attempts to use FU when none available (Count)
system.cpu.statFuBusy::SimdUnitStrideStore            0                       # attempts to use FU when none available (Count)
system.cpu.statFuBusy::SimdUnitStrideMaskLoad            0                       # attempts to use FU when none available (Count)
system.cpu.statFuBusy::SimdUnitStrideMaskStore            0                       # attempts to use FU when none available (Count)
system.cpu.statFuBusy::SimdStridedLoad              0                       # attempts to use FU when none available (Count)
system.cpu.statFuBusy::SimdStridedStore             0                       # attempts to use FU when none available (Count)
system.cpu.statFuBusy::SimdIndexedLoad              0                       # attempts to use FU when none available (Count)
system.cpu.statFuBusy::SimdIndexedStore             0                       # attempts to use FU when none available (Count)
system.cpu.statFuBusy::SimdWholeRegisterLoad            0                       # attempts to use FU when none available (Count)
system.cpu.statFuBusy::SimdWholeRegisterStore            0                       # attempts to use FU when none available (Count)
system.cpu.statFuBusy::SimdUnitStrideFaultOnlyFirstLoad            0                       # attempts to use FU when none available (Count)
system.cpu.statFuBusy::SimdUnitStrideSegmentedLoad            0                       # attempts to use FU when none available (Count)
system.cpu.statFuBusy::SimdUnitStrideSegmentedStore            0                       # attempts to use FU when none available (Count)
system.cpu.statFuBusy::SimdExt                      0                       # attempts to use FU when none available (Count)
system.cpu.statFuBusy::SimdFloatExt                 0                       # attempts to use FU when none available (Count)
system.cpu.statFuBusy::SimdConfig                   0                       # attempts to use FU when none available (Count)
system.cpu.statIssuedInstType_0::No_OpClass         2689      0.52%      0.52% # Number of instructions issued per FU type, per thread (Count)
system.cpu.statIssuedInstType_0::IntAlu        398607     76.37%     76.89% # Number of instructions issued per FU type, per thread (Count)
system.cpu.statIssuedInstType_0::IntMult          976      0.19%     77.07% # Number of instructions issued per FU type, per thread (Count)
system.cpu.statIssuedInstType_0::IntDiv          3366      0.64%     77.72% # Number of instructions issued per FU type, per thread (Count)
system.cpu.statIssuedInstType_0::FloatAdd         1319      0.25%     77.97% # Number of instructions issued per FU type, per thread (Count)
system.cpu.statIssuedInstType_0::FloatCmp            0      0.00%     77.97% # Number of instructions issued per FU type, per thread (Count)
system.cpu.statIssuedInstType_0::FloatCvt          272      0.05%     78.02% # Number of instructions issued per FU type, per thread (Count)
system.cpu.statIssuedInstType_0::FloatMult            0      0.00%     78.02% # Number of instructions issued per FU type, per thread (Count)
system.cpu.statIssuedInstType_0::FloatMultAcc            0      0.00%     78.02% # Number of instructions issued per FU type, per thread (Count)
system.cpu.statIssuedInstType_0::FloatDiv            0      0.00%     78.02% # Number of instructions issued per FU type, per thread (Count)
system.cpu.statIssuedInstType_0::FloatMisc            0      0.00%     78.02% # Number of instructions issued per FU type, per thread (Count)
system.cpu.statIssuedInstType_0::FloatSqrt            0      0.00%     78.02% # Number of instructions issued per FU type, per thread (Count)
system.cpu.statIssuedInstType_0::SimdAdd         1585      0.30%     78.33% # Number of instructions issued per FU type, per thread (Count)
system.cpu.statIssuedInstType_0::SimdAddAcc            0      0.00%     78.33% # Number of instructions issued per FU type, per thread (Count)
system.cpu.statIssuedInstType_0::SimdAlu         3464      0.66%     78.99% # Number of instructions issued per FU type, per thread (Count)
system.cpu.statIssuedInstType_0::SimdCmp            0      0.00%     78.99% # Number of instructions issued per FU type, per thread (Count)
system.cpu.statIssuedInstType_0::SimdCvt         3722      0.71%     79.70% # Number of instructions issued per FU type, per thread (Count)
system.cpu.statIssuedInstType_0::SimdMisc         2629      0.50%     80.21% # Number of instructions issued per FU type, per thread (Count)
system.cpu.statIssuedInstType_0::SimdMult            0      0.00%     80.21% # Number of instructions issued per FU type, per thread (Count)
system.cpu.statIssuedInstType_0::SimdMultAcc            0      0.00%     80.21% # Number of instructions issued per FU type, per thread (Count)
system.cpu.statIssuedInstType_0::SimdMatMultAcc            0      0.00%     80.21% # Number of instructions issued per FU type, per thread (Count)
system.cpu.statIssuedInstType_0::SimdShift         1176      0.23%     80.43% # Number of instructions issued per FU type, per thread (Count)
system.cpu.statIssuedInstType_0::SimdShiftAcc            0      0.00%     80.43% # Number of instructions issued per FU type, per thread (Count)
system.cpu.statIssuedInstType_0::SimdDiv            0      0.00%     80.43% # Number of instructions issued per FU type, per thread (Count)
system.cpu.statIssuedInstType_0::SimdSqrt            0      0.00%     80.43% # Number of instructions issued per FU type, per thread (Count)
system.cpu.statIssuedInstType_0::SimdFloatAdd           44      0.01%     80.44% # Number of instructions issued per FU type, per thread (Count)
system.cpu.statIssuedInstType_0::SimdFloatAlu            0      0.00%     80.44% # Number of instructions issued per FU type, per thread (Count)
system.cpu.statIssuedInstType_0::SimdFloatCmp            0      0.00%     80.44% # Number of instructions issued per FU type, per thread (Count)
system.cpu.statIssuedInstType_0::SimdFloatCvt           40      0.01%     80.45% # Number of instructions issued per FU type, per thread (Count)
system.cpu.statIssuedInstType_0::SimdFloatDiv            7      0.00%     80.45% # Number of instructions issued per FU type, per thread (Count)
system.cpu.statIssuedInstType_0::SimdFloatMisc            0      0.00%     80.45% # Number of instructions issued per FU type, per thread (Count)
system.cpu.statIssuedInstType_0::SimdFloatMult           12      0.00%     80.45% # Number of instructions issued per FU type, per thread (Count)
system.cpu.statIssuedInstType_0::SimdFloatMultAcc            0      0.00%     80.45% # Number of instructions issued per FU type, per thread (Count)
system.cpu.statIssuedInstType_0::SimdFloatMatMultAcc            0      0.00%     80.45% # Number of instructions issued per FU type, per thread (Count)
system.cpu.statIssuedInstType_0::SimdFloatSqrt            0      0.00%     80.45% # Number of instructions issued per FU type, per thread (Count)
system.cpu.statIssuedInstType_0::SimdReduceAdd            0      0.00%     80.45% # Number of instructions issued per FU type, per thread (Count)
system.cpu.statIssuedInstType_0::SimdReduceAlu            0      0.00%     80.45% # Number of instructions issued per FU type, per thread (Count)
system.cpu.statIssuedInstType_0::SimdReduceCmp            0      0.00%     80.45% # Number of instructions issued per FU type, per thread (Count)
system.cpu.statIssuedInstType_0::SimdFloatReduceAdd            0      0.00%     80.45% # Number of instructions issued per FU type, per thread (Count)
system.cpu.statIssuedInstType_0::SimdFloatReduceCmp            0      0.00%     80.45% # Number of instructions issued per FU type, per thread (Count)
system.cpu.statIssuedInstType_0::SimdAes            0      0.00%     80.45% # Number of instructions issued per FU type, per thread (Count)
system.cpu.statIssuedInstType_0::SimdAesMix            0      0.00%     80.45% # Number of instructions issued per FU type, per thread (Count)
system.cpu.statIssuedInstType_0::SimdSha1Hash            0      0.00%     80.45% # Number of instructions issued per FU type, per thread (Count)
system.cpu.statIssuedInstType_0::SimdSha1Hash2            0      0.00%     80.45% # Number of instructions issued per FU type, per thread (Count)
system.cpu.statIssuedInstType_0::SimdSha256Hash            0      0.00%     80.45% # Number of instructions issued per FU type, per thread (Count)
system.cpu.statIssuedInstType_0::SimdSha256Hash2            0      0.00%     80.45% # Number of instructions issued per FU type, per thread (Count)
system.cpu.statIssuedInstType_0::SimdShaSigma2            0      0.00%     80.45% # Number of instructions issued per FU type, per thread (Count)
system.cpu.statIssuedInstType_0::SimdShaSigma3            0      0.00%     80.45% # Number of instructions issued per FU type, per thread (Count)
system.cpu.statIssuedInstType_0::SimdPredAlu            0      0.00%     80.45% # Number of instructions issued per FU type, per thread (Count)
system.cpu.statIssuedInstType_0::Matrix             0      0.00%     80.45% # Number of instructions issued per FU type, per thread (Count)
system.cpu.statIssuedInstType_0::MatrixMov            0      0.00%     80.45% # Number of instructions issued per FU type, per thread (Count)
system.cpu.statIssuedInstType_0::MatrixOP            0      0.00%     80.45% # Number of instructions issued per FU type, per thread (Count)
system.cpu.statIssuedInstType_0::MemRead        62300     11.94%     92.39% # Number of instructions issued per FU type, per thread (Count)
system.cpu.statIssuedInstType_0::MemWrite        31388      6.01%     98.40% # Number of instructions issued per FU type, per thread (Count)
system.cpu.statIssuedInstType_0::FloatMemRead         5680      1.09%     99.49% # Number of instructions issued per FU type, per thread (Count)
system.cpu.statIssuedInstType_0::FloatMemWrite         2655      0.51%    100.00% # Number of instructions issued per FU type, per thread (Count)
system.cpu.statIssuedInstType_0::IprAccess            0      0.00%    100.00% # Number of instructions issued per FU type, per thread (Count)
system.cpu.statIssuedInstType_0::InstPrefetch            0      0.00%    100.00% # Number of instructions issued per FU type, per thread (Count)
system.cpu.statIssuedInstType_0::SimdUnitStrideLoad            0      0.00%    100.00% # Number of instructions issued per FU type, per thread (Count)
system.cpu.statIssuedInstType_0::SimdUnitStrideStore            0      0.00%    100.00% # Number of instructions issued per FU type, per thread (Count)
system.cpu.statIssuedInstType_0::SimdUnitStrideMaskLoad            0      0.00%    100.00% # Number of instructions issued per FU type, per thread (Count)
system.cpu.statIssuedInstType_0::SimdUnitStrideMaskStore            0      0.00%    100.00% # Number of instructions issued per FU type, per thread (Count)
system.cpu.statIssuedInstType_0::SimdStridedLoad            0      0.00%    100.00% # Number of instructions issued per FU type, per thread (Count)
system.cpu.statIssuedInstType_0::SimdStridedStore            0      0.00%    100.00% # Number of instructions issued per FU type, per thread (Count)
system.cpu.statIssuedInstType_0::SimdIndexedLoad            0      0.00%    100.00% # Number of instructions issued per FU type, per thread (Count)
system.cpu.statIssuedInstType_0::SimdIndexedStore            0      0.00%    100.00% # Number of instructions issued per FU type, per thread (Count)
system.cpu.statIssuedInstType_0::SimdWholeRegisterLoad            0      0.00%    100.00% # Number of instructions issued per FU type, per thread (Count)
system.cpu.statIssuedInstType_0::SimdWholeRegisterStore            0      0.00%    100.00% # Number of instructions issued per FU type, per thread (Count)
system.cpu.statIssuedInstType_0::SimdUnitStrideFaultOnlyFirstLoad            0      0.00%    100.00% # Number of instructions issued per FU type, per thread (Count)
system.cpu.statIssuedInstType_0::SimdUnitStrideSegmentedLoad            0      0.00%    100.00% # Number of instructions issued per FU type, per thread (Count)
system.cpu.statIssuedInstType_0::SimdUnitStrideSegmentedStore            0      0.00%    100.00% # Number of instructions issued per FU type, per thread (Count)
system.cpu.statIssuedInstType_0::SimdExt            0      0.00%    100.00% # Number of instructions issued per FU type, per thread (Count)
system.cpu.statIssuedInstType_0::SimdFloatExt            0      0.00%    100.00% # Number of instructions issued per FU type, per thread (Count)
system.cpu.statIssuedInstType_0::SimdConfig            0      0.00%    100.00% # Number of instructions issued per FU type, per thread (Count)
system.cpu.statIssuedInstType_0::total         521931                       # Number of instructions issued per FU type, per thread (Count)
system.cpu.issueRate                         0.991953                       # Inst issue rate ((Count/Cycle))
system.cpu.fuBusy                                   0                       # FU busy when requested (Count)
system.cpu.fuBusyRate                               0                       # FU busy rate (busy events/executed inst) ((Count/Count))
system.cpu.intInstQueueReads                  1410223                       # Number of integer instruction queue reads (Count)
system.cpu.intInstQueueWrites                  604762                       # Number of integer instruction queue writes (Count)
system.cpu.intInstQueueWakeupAccesses          487452                       # Number of integer instruction queue wakeup accesses (Count)
system.cpu.fpInstQueueReads                     46563                       # Number of floating instruction queue reads (Count)
system.cpu.fpInstQueueWrites                    32543                       # Number of floating instruction queue writes (Count)
system.cpu.fpInstQueueWakeupAccesses            21800                       # Number of floating instruction queue wakeup accesses (Count)
system.cpu.vecInstQueueReads                        0                       # Number of vector instruction queue reads (Count)
system.cpu.vecInstQueueWrites                       0                       # Number of vector instruction queue writes (Count)
system.cpu.vecInstQueueWakeupAccesses               0                       # Number of vector instruction queue wakeup accesses (Count)
system.cpu.intAluAccesses                      496029                       # Number of integer alu accesses (Count)
system.cpu.fpAluAccesses                        23213                       # Number of floating point alu accesses (Count)
system.cpu.vecAluAccesses                           0                       # Number of vector alu accesses (Count)
system.cpu.numRecvResp                          93097                       # Number of received responses (Count)
system.cpu.numRecvRespBytes                    595539                       # Number of received response bytes (Byte)
system.cpu.recvRespAvgBW                         1.13                       # Average bandwidth of received responses ((Byte/Cycle))
system.cpu.recvRespAvgSize                       6.40                       # Average packet size per received response ((Byte/Count))
system.cpu.recvRespAvgRate                       0.18                       # Average rate of received responses per cycle ((Count/Cycle))
system.cpu.recvRespAvgRetryRate                  0.00                       # Average retry rate per received response ((Count/Count))
system.cpu.numSendRetryResp                         0                       # Number of retry responses sent (Count)
system.cpu.numSquashedInsts                      8904                       # Number of squashed instructions skipped in execute (Count)
system.cpu.numSwp                                   0                       # Number of swp insts executed (Count)
system.cpu.timesIdled                            1316                       # Number of times that the entire CPU went into an idle state and unscheduled itself (Count)
system.cpu.idleCycles                          114519                       # Total number of cycles that the CPU has spent unscheduled due to idling (Cycle)
system.cpu.MemDepUnit__0.insertedLoads          69985                       # Number of loads inserted to the mem dependence unit. (Count)
system.cpu.MemDepUnit__0.insertedStores         35613                       # Number of stores inserted to the mem dependence unit. (Count)
system.cpu.MemDepUnit__0.conflictingLoads         3029                       # Number of conflicting loads. (Count)
system.cpu.MemDepUnit__0.conflictingStores         2465                       # Number of conflicting stores. (Count)
system.cpu.MemDepUnit__1.insertedLoads              0                       # Number of loads inserted to the mem dependence unit. (Count)
system.cpu.MemDepUnit__1.insertedStores             0                       # Number of stores inserted to the mem dependence unit. (Count)
system.cpu.MemDepUnit__1.conflictingLoads            0                       # Number of conflicting loads. (Count)
system.cpu.MemDepUnit__1.conflictingStores            0                       # Number of conflicting stores. (Count)
system.cpu.MemDepUnit__2.insertedLoads              0                       # Number of loads inserted to the mem dependence unit. (Count)
system.cpu.MemDepUnit__2.insertedStores             0                       # Number of stores inserted to the mem dependence unit. (Count)
system.cpu.MemDepUnit__2.conflictingLoads            0                       # Number of conflicting loads. (Count)
system.cpu.MemDepUnit__2.conflictingStores            0                       # Number of conflicting stores. (Count)
system.cpu.MemDepUnit__3.insertedLoads              0                       # Number of loads inserted to the mem dependence unit. (Count)
system.cpu.MemDepUnit__3.insertedStores             0                       # Number of stores inserted to the mem dependence unit. (Count)
system.cpu.MemDepUnit__3.conflictingLoads            0                       # Number of conflicting loads. (Count)
system.cpu.MemDepUnit__3.conflictingStores            0                       # Number of conflicting stores. (Count)
system.cpu.branchPred.lookups_0::NoBranch          575      0.86%      0.86% # Number of BP lookups (Count)
system.cpu.branchPred.lookups_0::Return          3054      4.56%      5.41% # Number of BP lookups (Count)
system.cpu.branchPred.lookups_0::CallDirect         3309      4.94%     10.35% # Number of BP lookups (Count)
system.cpu.branchPred.lookups_0::CallIndirect          197      0.29%     10.64% # Number of BP lookups (Count)
system.cpu.branchPred.lookups_0::DirectCond        53599     79.96%     90.61% # Number of BP lookups (Count)
system.cpu.branchPred.lookups_0::DirectUncond         4279      6.38%     96.99% # Number of BP lookups (Count)
system.cpu.branchPred.lookups_0::IndirectCond            0      0.00%     96.99% # Number of BP lookups (Count)
system.cpu.branchPred.lookups_0::IndirectUncond         2017      3.01%    100.00% # Number of BP lookups (Count)
system.cpu.branchPred.lookups_0::total          67030                       # Number of BP lookups (Count)
system.cpu.branchPred.squashes_0::NoBranch          488      2.84%      2.84% # Number of branches that got squashed (completely removed) as an earlier branch was mispredicted. (Count)
system.cpu.branchPred.squashes_0::Return          541      3.14%      5.98% # Number of branches that got squashed (completely removed) as an earlier branch was mispredicted. (Count)
system.cpu.branchPred.squashes_0::CallDirect          934      5.43%     11.41% # Number of branches that got squashed (completely removed) as an earlier branch was mispredicted. (Count)
system.cpu.branchPred.squashes_0::CallIndirect           52      0.30%     11.71% # Number of branches that got squashed (completely removed) as an earlier branch was mispredicted. (Count)
system.cpu.branchPred.squashes_0::DirectCond        13146     76.39%     88.10% # Number of branches that got squashed (completely removed) as an earlier branch was mispredicted. (Count)
system.cpu.branchPred.squashes_0::DirectUncond         1220      7.09%     95.19% # Number of branches that got squashed (completely removed) as an earlier branch was mispredicted. (Count)
system.cpu.branchPred.squashes_0::IndirectCond            0      0.00%     95.19% # Number of branches that got squashed (completely removed) as an earlier branch was mispredicted. (Count)
system.cpu.branchPred.squashes_0::IndirectUncond          827      4.81%    100.00% # Number of branches that got squashed (completely removed) as an earlier branch was mispredicted. (Count)
system.cpu.branchPred.squashes_0::total         17208                       # Number of branches that got squashed (completely removed) as an earlier branch was mispredicted. (Count)
system.cpu.branchPred.corrected_0::NoBranch          107      1.84%      1.84% # Number of branches that got corrected but not yet commited. Branches get corrected by decode or after execute. Also a branch misprediction can be detected out-of-order. Therefore, a corrected branch might not end up beeing committed in case an even earlier branch was mispredicted (Count)
system.cpu.branchPred.corrected_0::Return            4      0.07%      1.91% # Number of branches that got corrected but not yet commited. Branches get corrected by decode or after execute. Also a branch misprediction can be detected out-of-order. Therefore, a corrected branch might not end up beeing committed in case an even earlier branch was mispredicted (Count)
system.cpu.branchPred.corrected_0::CallDirect          496      8.52%     10.43% # Number of branches that got corrected but not yet commited. Branches get corrected by decode or after execute. Also a branch misprediction can be detected out-of-order. Therefore, a corrected branch might not end up beeing committed in case an even earlier branch was mispredicted (Count)
system.cpu.branchPred.corrected_0::CallIndirect          142      2.44%     12.86% # Number of branches that got corrected but not yet commited. Branches get corrected by decode or after execute. Also a branch misprediction can be detected out-of-order. Therefore, a corrected branch might not end up beeing committed in case an even earlier branch was mispredicted (Count)
system.cpu.branchPred.corrected_0::DirectCond         4121     70.78%     83.65% # Number of branches that got corrected but not yet commited. Branches get corrected by decode or after execute. Also a branch misprediction can be detected out-of-order. Therefore, a corrected branch might not end up beeing committed in case an even earlier branch was mispredicted (Count)
system.cpu.branchPred.corrected_0::DirectUncond          492      8.45%     92.10% # Number of branches that got corrected but not yet commited. Branches get corrected by decode or after execute. Also a branch misprediction can be detected out-of-order. Therefore, a corrected branch might not end up beeing committed in case an even earlier branch was mispredicted (Count)
system.cpu.branchPred.corrected_0::IndirectCond            0      0.00%     92.10% # Number of branches that got corrected but not yet commited. Branches get corrected by decode or after execute. Also a branch misprediction can be detected out-of-order. Therefore, a corrected branch might not end up beeing committed in case an even earlier branch was mispredicted (Count)
system.cpu.branchPred.corrected_0::IndirectUncond          460      7.90%    100.00% # Number of branches that got corrected but not yet commited. Branches get corrected by decode or after execute. Also a branch misprediction can be detected out-of-order. Therefore, a corrected branch might not end up beeing committed in case an even earlier branch was mispredicted (Count)
system.cpu.branchPred.corrected_0::total         5822                       # Number of branches that got corrected but not yet commited. Branches get corrected by decode or after execute. Also a branch misprediction can be detected out-of-order. Therefore, a corrected branch might not end up beeing committed in case an even earlier branch was mispredicted (Count)
system.cpu.branchPred.earlyResteers_0::NoBranch            0                       # Number of branches that got redirected after decode. (Count)
system.cpu.branchPred.earlyResteers_0::Return            0                       # Number of branches that got redirected after decode. (Count)
system.cpu.branchPred.earlyResteers_0::CallDirect            0                       # Number of branches that got redirected after decode. (Count)
system.cpu.branchPred.earlyResteers_0::CallIndirect            0                       # Number of branches that got redirected after decode. (Count)
system.cpu.branchPred.earlyResteers_0::DirectCond            0                       # Number of branches that got redirected after decode. (Count)
system.cpu.branchPred.earlyResteers_0::DirectUncond            0                       # Number of branches that got redirected after decode. (Count)
system.cpu.branchPred.earlyResteers_0::IndirectCond            0                       # Number of branches that got redirected after decode. (Count)
system.cpu.branchPred.earlyResteers_0::IndirectUncond            0                       # Number of branches that got redirected after decode. (Count)
system.cpu.branchPred.earlyResteers_0::total            0                       # Number of branches that got redirected after decode. (Count)
system.cpu.branchPred.committed_0::NoBranch           87      0.17%      0.17% # Number of branches finally committed  (Count)
system.cpu.branchPred.committed_0::Return         2513      5.04%      5.22% # Number of branches finally committed  (Count)
system.cpu.branchPred.committed_0::CallDirect         2375      4.77%      9.99% # Number of branches finally committed  (Count)
system.cpu.branchPred.committed_0::CallIndirect          145      0.29%     10.28% # Number of branches finally committed  (Count)
system.cpu.branchPred.committed_0::DirectCond        40452     81.19%     91.47% # Number of branches finally committed  (Count)
system.cpu.branchPred.committed_0::DirectUncond         3059      6.14%     97.61% # Number of branches finally committed  (Count)
system.cpu.branchPred.committed_0::IndirectCond            0      0.00%     97.61% # Number of branches finally committed  (Count)
system.cpu.branchPred.committed_0::IndirectUncond         1190      2.39%    100.00% # Number of branches finally committed  (Count)
system.cpu.branchPred.committed_0::total        49821                       # Number of branches finally committed  (Count)
system.cpu.branchPred.mispredicted_0::NoBranch           87      1.69%      1.69% # Number of committed branches that were mispredicted. (Count)
system.cpu.branchPred.mispredicted_0::Return            0      0.00%      1.69% # Number of committed branches that were mispredicted. (Count)
system.cpu.branchPred.mispredicted_0::CallDirect          337      6.56%      8.26% # Number of committed branches that were mispredicted. (Count)
system.cpu.branchPred.mispredicted_0::CallIndirect          137      2.67%     10.92% # Number of committed branches that were mispredicted. (Count)
system.cpu.branchPred.mispredicted_0::DirectCond         3844     74.84%     85.77% # Number of committed branches that were mispredicted. (Count)
system.cpu.branchPred.mispredicted_0::DirectUncond          304      5.92%     91.69% # Number of committed branches that were mispredicted. (Count)
system.cpu.branchPred.mispredicted_0::IndirectCond            0      0.00%     91.69% # Number of committed branches that were mispredicted. (Count)
system.cpu.branchPred.mispredicted_0::IndirectUncond          427      8.31%    100.00% # Number of committed branches that were mispredicted. (Count)
system.cpu.branchPred.mispredicted_0::total         5136                       # Number of committed branches that were mispredicted. (Count)
system.cpu.branchPred.mispredictDueToPredictor_0::NoBranch           87      3.13%      3.13% # Number of committed branches that were mispredicted by the predictor. (Count)
system.cpu.branchPred.mispredictDueToPredictor_0::Return            0      0.00%      3.13% # Number of committed branches that were mispredicted by the predictor. (Count)
system.cpu.branchPred.mispredictDueToPredictor_0::CallDirect            1      0.04%      3.17% # Number of committed branches that were mispredicted by the predictor. (Count)
system.cpu.branchPred.mispredictDueToPredictor_0::CallIndirect            0      0.00%      3.17% # Number of committed branches that were mispredicted by the predictor. (Count)
system.cpu.branchPred.mispredictDueToPredictor_0::DirectCond         2690     96.76%     99.93% # Number of committed branches that were mispredicted by the predictor. (Count)
system.cpu.branchPred.mispredictDueToPredictor_0::DirectUncond            2      0.07%    100.00% # Number of committed branches that were mispredicted by the predictor. (Count)
system.cpu.branchPred.mispredictDueToPredictor_0::IndirectCond            0      0.00%    100.00% # Number of committed branches that were mispredicted by the predictor. (Count)
system.cpu.branchPred.mispredictDueToPredictor_0::IndirectUncond            0      0.00%    100.00% # Number of committed branches that were mispredicted by the predictor. (Count)
system.cpu.branchPred.mispredictDueToPredictor_0::total         2780                       # Number of committed branches that were mispredicted by the predictor. (Count)
system.cpu.branchPred.mispredictDueToBTBMiss_0::NoBranch            0      0.00%      0.00% # Number of committed branches that were mispredicted because of a BTB miss. (Count)
system.cpu.branchPred.mispredictDueToBTBMiss_0::Return            0      0.00%      0.00% # Number of committed branches that were mispredicted because of a BTB miss. (Count)
system.cpu.branchPred.mispredictDueToBTBMiss_0::CallDirect          336     14.26%     14.26% # Number of committed branches that were mispredicted because of a BTB miss. (Count)
system.cpu.branchPred.mispredictDueToBTBMiss_0::CallIndirect          137      5.81%     20.08% # Number of committed branches that were mispredicted because of a BTB miss. (Count)
system.cpu.branchPred.mispredictDueToBTBMiss_0::DirectCond         1154     48.98%     69.06% # Number of committed branches that were mispredicted because of a BTB miss. (Count)
system.cpu.branchPred.mispredictDueToBTBMiss_0::DirectUncond          302     12.82%     81.88% # Number of committed branches that were mispredicted because of a BTB miss. (Count)
system.cpu.branchPred.mispredictDueToBTBMiss_0::IndirectCond            0      0.00%     81.88% # Number of committed branches that were mispredicted because of a BTB miss. (Count)
system.cpu.branchPred.mispredictDueToBTBMiss_0::IndirectUncond          427     18.12%    100.00% # Number of committed branches that were mispredicted because of a BTB miss. (Count)
system.cpu.branchPred.mispredictDueToBTBMiss_0::total         2356                       # Number of committed branches that were mispredicted because of a BTB miss. (Count)
system.cpu.branchPred.targetProvider_0::NoTarget        38207     57.00%     57.00% # The component providing the target for taken branches (Count)
system.cpu.branchPred.targetProvider_0::BTB        24885     37.13%     94.13% # The component providing the target for taken branches (Count)
system.cpu.branchPred.targetProvider_0::RAS         3053      4.55%     98.68% # The component providing the target for taken branches (Count)
system.cpu.branchPred.targetProvider_0::Indirect          885      1.32%    100.00% # The component providing the target for taken branches (Count)
system.cpu.branchPred.targetProvider_0::total        67030                       # The component providing the target for taken branches (Count)
system.cpu.branchPred.targetWrong_0::NoBranch         4427     82.06%     82.06% # Number of branches where the target was incorrect or not available at prediction time. (Count)
system.cpu.branchPred.targetWrong_0::Return          880     16.31%     98.37% # Number of branches where the target was incorrect or not available at prediction time. (Count)
system.cpu.branchPred.targetWrong_0::CallDirect            4      0.07%     98.44% # Number of branches where the target was incorrect or not available at prediction time. (Count)
system.cpu.branchPred.targetWrong_0::CallIndirect           84      1.56%    100.00% # Number of branches where the target was incorrect or not available at prediction time. (Count)
system.cpu.branchPred.targetWrong_0::DirectCond            0      0.00%    100.00% # Number of branches where the target was incorrect or not available at prediction time. (Count)
system.cpu.branchPred.targetWrong_0::DirectUncond            0      0.00%    100.00% # Number of branches where the target was incorrect or not available at prediction time. (Count)
system.cpu.branchPred.targetWrong_0::IndirectCond            0      0.00%    100.00% # Number of branches where the target was incorrect or not available at prediction time. (Count)
system.cpu.branchPred.targetWrong_0::IndirectUncond            0      0.00%    100.00% # Number of branches where the target was incorrect or not available at prediction time. (Count)
system.cpu.branchPred.targetWrong_0::total         5395                       # Number of branches where the target was incorrect or not available at prediction time. (Count)
system.cpu.branchPred.condPredicted             54174                       # Number of conditional branches predicted (Count)
system.cpu.branchPred.condPredictedTaken        20279                       # Number of conditional branches predicted as taken (Count)
system.cpu.branchPred.condIncorrect              5822                       # Number of conditional branches incorrect (Count)
system.cpu.branchPred.predTakenBTBMiss           1434                       # Number of branches predicted taken but missed in BTB (Count)
system.cpu.branchPred.BTBLookups                67030                       # Number of BTB lookups (Count)
system.cpu.branchPred.BTBUpdates                 4168                       # Number of BTB updates (Count)
system.cpu.branchPred.BTBHits                   36902                       # Number of BTB hits (Count)
system.cpu.branchPred.BTBHitRatio            0.550530                       # BTB Hit Ratio (Ratio)
system.cpu.branchPred.BTBMispredicted            2218                       # Number BTB mispredictions. No target found or target wrong (Count)
system.cpu.branchPred.indirectLookups            2214                       # Number of indirect predictor lookups. (Count)
system.cpu.branchPred.indirectHits                885                       # Number of indirect target hits. (Count)
system.cpu.branchPred.indirectMisses             1329                       # Number of indirect misses. (Count)
system.cpu.branchPred.indirectMispredicted            0                       # Number of mispredicted indirect branches. (Count)
system.cpu.branchPred.btb.lookups::NoBranch          575      0.86%      0.86% # Number of BTB lookups (Count)
system.cpu.branchPred.btb.lookups::Return         3054      4.56%      5.41% # Number of BTB lookups (Count)
system.cpu.branchPred.btb.lookups::CallDirect         3309      4.94%     10.35% # Number of BTB lookups (Count)
system.cpu.branchPred.btb.lookups::CallIndirect          197      0.29%     10.64% # Number of BTB lookups (Count)
system.cpu.branchPred.btb.lookups::DirectCond        53599     79.96%     90.61% # Number of BTB lookups (Count)
system.cpu.branchPred.btb.lookups::DirectUncond         4279      6.38%     96.99% # Number of BTB lookups (Count)
system.cpu.branchPred.btb.lookups::IndirectCond            0      0.00%     96.99% # Number of BTB lookups (Count)
system.cpu.branchPred.btb.lookups::IndirectUncond         2017      3.01%    100.00% # Number of BTB lookups (Count)
system.cpu.branchPred.btb.lookups::total        67030                       # Number of BTB lookups (Count)
system.cpu.branchPred.btb.misses::NoBranch          175      0.58%      0.58% # Number of BTB misses (Count)
system.cpu.branchPred.btb.misses::Return         3051     10.13%     10.71% # Number of BTB misses (Count)
system.cpu.branchPred.btb.misses::CallDirect          624      2.07%     12.78% # Number of BTB misses (Count)
system.cpu.branchPred.btb.misses::CallIndirect          197      0.65%     13.43% # Number of BTB misses (Count)
system.cpu.branchPred.btb.misses::DirectCond        23489     77.96%     91.40% # Number of BTB misses (Count)
system.cpu.branchPred.btb.misses::DirectUncond          575      1.91%     93.31% # Number of BTB misses (Count)
system.cpu.branchPred.btb.misses::IndirectCond            0      0.00%     93.31% # Number of BTB misses (Count)
system.cpu.branchPred.btb.misses::IndirectUncond         2017      6.69%    100.00% # Number of BTB misses (Count)
system.cpu.branchPred.btb.misses::total         30128                       # Number of BTB misses (Count)
system.cpu.branchPred.btb.updates::NoBranch            0      0.00%      0.00% # Number of BTB updates (Count)
system.cpu.branchPred.btb.updates::Return            0      0.00%      0.00% # Number of BTB updates (Count)
system.cpu.branchPred.btb.updates::CallDirect          496     11.90%     11.90% # Number of BTB updates (Count)
system.cpu.branchPred.btb.updates::CallIndirect            0      0.00%     11.90% # Number of BTB updates (Count)
system.cpu.branchPred.btb.updates::DirectCond         3180     76.30%     88.20% # Number of BTB updates (Count)
system.cpu.branchPred.btb.updates::DirectUncond          492     11.80%    100.00% # Number of BTB updates (Count)
system.cpu.branchPred.btb.updates::IndirectCond            0      0.00%    100.00% # Number of BTB updates (Count)
system.cpu.branchPred.btb.updates::IndirectUncond            0      0.00%    100.00% # Number of BTB updates (Count)
system.cpu.branchPred.btb.updates::total         4168                       # Number of BTB updates (Count)
system.cpu.branchPred.btb.mispredict::NoBranch            0      0.00%      0.00% # Number of BTB mispredictions. No target found or target wrong. (Count)
system.cpu.branchPred.btb.mispredict::Return            0      0.00%      0.00% # Number of BTB mispredictions. No target found or target wrong. (Count)
system.cpu.branchPred.btb.mispredict::CallDirect          496     11.90%     11.90% # Number of BTB mispredictions. No target found or target wrong. (Count)
system.cpu.branchPred.btb.mispredict::CallIndirect            0      0.00%     11.90% # Number of BTB mispredictions. No target found or target wrong. (Count)
system.cpu.branchPred.btb.mispredict::DirectCond         3180     76.30%     88.20% # Number of BTB mispredictions. No target found or target wrong. (Count)
system.cpu.branchPred.btb.mispredict::DirectUncond          492     11.80%    100.00% # Number of BTB mispredictions. No target found or target wrong. (Count)
system.cpu.branchPred.btb.mispredict::IndirectCond            0      0.00%    100.00% # Number of BTB mispredictions. No target found or target wrong. (Count)
system.cpu.branchPred.btb.mispredict::IndirectUncond            0      0.00%    100.00% # Number of BTB mispredictions. No target found or target wrong. (Count)
system.cpu.branchPred.btb.mispredict::total         4168                       # Number of BTB mispredictions. No target found or target wrong. (Count)
system.cpu.branchPred.btb.power_state.pwrStateResidencyTicks::UNDEFINED    263082000                       # Cumulative time (in ticks) in various power states (Tick)
system.cpu.branchPred.indirectBranchPred.lookups         2214                       # Number of lookups (Count)
system.cpu.branchPred.indirectBranchPred.hits          885                       # Number of hits of a tag (Count)
system.cpu.branchPred.indirectBranchPred.misses         1329                       # Number of misses (Count)
system.cpu.branchPred.indirectBranchPred.targetRecords          602                       # Number of targets that where recorded/installed in the cache (Count)
system.cpu.branchPred.indirectBranchPred.indirectRecords         2816                       # Number of indirect branches/calls recorded in the indirect hist (Count)
system.cpu.branchPred.indirectBranchPred.speculativeOverflows            4                       # Number of times more than the allowed capacity for speculative branches/calls where in flight and destroy the path history (Count)
system.cpu.branchPred.ras.pushes                 4047                       # Number of times a PC was pushed onto the RAS (Count)
system.cpu.branchPred.ras.pops                   4040                       # Number of times a PC was poped from the RAS (Count)
system.cpu.branchPred.ras.squashes               1527                       # Number of times the stack operation was squashed due to wrong speculation. (Count)
system.cpu.branchPred.ras.used                   2513                       # Number of times the RAS is the provider (Count)
system.cpu.branchPred.ras.correct                2513                       # Number of times the RAS is the provider and the prediction is correct (Count)
system.cpu.branchPred.ras.incorrect                 0                       # Number of times the RAS is the provider and the prediction is wrong (Count)
system.cpu.commit.commitSquashedInsts           89639                       # The number of squashed insts skipped by commit (Count)
system.cpu.commit.commitNonSpecStalls             681                       # The number of times commit has been forced to stall to communicate backwards (Count)
system.cpu.commit.branchMispredicts              5033                       # The number of times a branch was mispredicted (Count)
system.cpu.commit.numCommittedDist::samples       397542                       # Number of insts commited each cycle (Count)
system.cpu.commit.numCommittedDist::mean     1.138340                       # Number of insts commited each cycle (Count)
system.cpu.commit.numCommittedDist::stdev     1.608226                       # Number of insts commited each cycle (Count)
system.cpu.commit.numCommittedDist::underflows            0      0.00%      0.00% # Number of insts commited each cycle (Count)
system.cpu.commit.numCommittedDist::0          240067     60.39%     60.39% # Number of insts commited each cycle (Count)
system.cpu.commit.numCommittedDist::1           36751      9.24%     69.63% # Number of insts commited each cycle (Count)
system.cpu.commit.numCommittedDist::2           22383      5.63%     75.26% # Number of insts commited each cycle (Count)
system.cpu.commit.numCommittedDist::3           22343      5.62%     80.88% # Number of insts commited each cycle (Count)
system.cpu.commit.numCommittedDist::4           75998     19.12%    100.00% # Number of insts commited each cycle (Count)
system.cpu.commit.numCommittedDist::overflows            0      0.00%    100.00% # Number of insts commited each cycle (Count)
system.cpu.commit.numCommittedDist::min_value            0                       # Number of insts commited each cycle (Count)
system.cpu.commit.numCommittedDist::max_value            4                       # Number of insts commited each cycle (Count)
system.cpu.commit.numCommittedDist::total       397542                       # Number of insts commited each cycle (Count)
system.cpu.commit.amos                              0                       # Number of atomic instructions committed (Count)
system.cpu.commit.membars                         352                       # Number of memory barriers committed (Count)
system.cpu.commit.functionCalls                  2520                       # Number of function calls committed. (Count)
system.cpu.commit.committedInstType_0::No_OpClass         1584      0.35%      0.35% # Class of committed instruction (Count)
system.cpu.commit.committedInstType_0::IntAlu       348219     76.95%     77.30% # Class of committed instruction (Count)
system.cpu.commit.committedInstType_0::IntMult          845      0.19%     77.48% # Class of committed instruction (Count)
system.cpu.commit.committedInstType_0::IntDiv         3136      0.69%     78.18% # Class of committed instruction (Count)
system.cpu.commit.committedInstType_0::FloatAdd          885      0.20%     78.37% # Class of committed instruction (Count)
system.cpu.commit.committedInstType_0::FloatCmp            0      0.00%     78.37% # Class of committed instruction (Count)
system.cpu.commit.committedInstType_0::FloatCvt          272      0.06%     78.43% # Class of committed instruction (Count)
system.cpu.commit.committedInstType_0::FloatMult            0      0.00%     78.43% # Class of committed instruction (Count)
system.cpu.commit.committedInstType_0::FloatMultAcc            0      0.00%     78.43% # Class of committed instruction (Count)
system.cpu.commit.committedInstType_0::FloatDiv            0      0.00%     78.43% # Class of committed instruction (Count)
system.cpu.commit.committedInstType_0::FloatMisc            0      0.00%     78.43% # Class of committed instruction (Count)
system.cpu.commit.committedInstType_0::FloatSqrt            0      0.00%     78.43% # Class of committed instruction (Count)
system.cpu.commit.committedInstType_0::SimdAdd         1414      0.31%     78.75% # Class of committed instruction (Count)
system.cpu.commit.committedInstType_0::SimdAddAcc            0      0.00%     78.75% # Class of committed instruction (Count)
system.cpu.commit.committedInstType_0::SimdAlu         2636      0.58%     79.33% # Class of committed instruction (Count)
system.cpu.commit.committedInstType_0::SimdCmp            0      0.00%     79.33% # Class of committed instruction (Count)
system.cpu.commit.committedInstType_0::SimdCvt         3170      0.70%     80.03% # Class of committed instruction (Count)
system.cpu.commit.committedInstType_0::SimdMisc         2455      0.54%     80.57% # Class of committed instruction (Count)
system.cpu.commit.committedInstType_0::SimdMult            0      0.00%     80.57% # Class of committed instruction (Count)
system.cpu.commit.committedInstType_0::SimdMultAcc            0      0.00%     80.57% # Class of committed instruction (Count)
system.cpu.commit.committedInstType_0::SimdMatMultAcc            0      0.00%     80.57% # Class of committed instruction (Count)
system.cpu.commit.committedInstType_0::SimdShift          615      0.14%     80.71% # Class of committed instruction (Count)
system.cpu.commit.committedInstType_0::SimdShiftAcc            0      0.00%     80.71% # Class of committed instruction (Count)
system.cpu.commit.committedInstType_0::SimdDiv            0      0.00%     80.71% # Class of committed instruction (Count)
system.cpu.commit.committedInstType_0::SimdSqrt            0      0.00%     80.71% # Class of committed instruction (Count)
system.cpu.commit.committedInstType_0::SimdFloatAdd           44      0.01%     80.72% # Class of committed instruction (Count)
system.cpu.commit.committedInstType_0::SimdFloatAlu            0      0.00%     80.72% # Class of committed instruction (Count)
system.cpu.commit.committedInstType_0::SimdFloatCmp            0      0.00%     80.72% # Class of committed instruction (Count)
system.cpu.commit.committedInstType_0::SimdFloatCvt           40      0.01%     80.73% # Class of committed instruction (Count)
system.cpu.commit.committedInstType_0::SimdFloatDiv            7      0.00%     80.73% # Class of committed instruction (Count)
system.cpu.commit.committedInstType_0::SimdFloatMisc            0      0.00%     80.73% # Class of committed instruction (Count)
system.cpu.commit.committedInstType_0::SimdFloatMult           12      0.00%     80.73% # Class of committed instruction (Count)
system.cpu.commit.committedInstType_0::SimdFloatMultAcc            0      0.00%     80.73% # Class of committed instruction (Count)
system.cpu.commit.committedInstType_0::SimdFloatMatMultAcc            0      0.00%     80.73% # Class of committed instruction (Count)
system.cpu.commit.committedInstType_0::SimdFloatSqrt            0      0.00%     80.73% # Class of committed instruction (Count)
system.cpu.commit.committedInstType_0::SimdReduceAdd            0      0.00%     80.73% # Class of committed instruction (Count)
system.cpu.commit.committedInstType_0::SimdReduceAlu            0      0.00%     80.73% # Class of committed instruction (Count)
system.cpu.commit.committedInstType_0::SimdReduceCmp            0      0.00%     80.73% # Class of committed instruction (Count)
system.cpu.commit.committedInstType_0::SimdFloatReduceAdd            0      0.00%     80.73% # Class of committed instruction (Count)
system.cpu.commit.committedInstType_0::SimdFloatReduceCmp            0      0.00%     80.73% # Class of committed instruction (Count)
system.cpu.commit.committedInstType_0::SimdAes            0      0.00%     80.73% # Class of committed instruction (Count)
system.cpu.commit.committedInstType_0::SimdAesMix            0      0.00%     80.73% # Class of committed instruction (Count)
system.cpu.commit.committedInstType_0::SimdSha1Hash            0      0.00%     80.73% # Class of committed instruction (Count)
system.cpu.commit.committedInstType_0::SimdSha1Hash2            0      0.00%     80.73% # Class of committed instruction (Count)
system.cpu.commit.committedInstType_0::SimdSha256Hash            0      0.00%     80.73% # Class of committed instruction (Count)
system.cpu.commit.committedInstType_0::SimdSha256Hash2            0      0.00%     80.73% # Class of committed instruction (Count)
system.cpu.commit.committedInstType_0::SimdShaSigma2            0      0.00%     80.73% # Class of committed instruction (Count)
system.cpu.commit.committedInstType_0::SimdShaSigma3            0      0.00%     80.73% # Class of committed instruction (Count)
system.cpu.commit.committedInstType_0::SimdPredAlu            0      0.00%     80.73% # Class of committed instruction (Count)
system.cpu.commit.committedInstType_0::Matrix            0      0.00%     80.73% # Class of committed instruction (Count)
system.cpu.commit.committedInstType_0::MatrixMov            0      0.00%     80.73% # Class of committed instruction (Count)
system.cpu.commit.committedInstType_0::MatrixOP            0      0.00%     80.73% # Class of committed instruction (Count)
system.cpu.commit.committedInstType_0::MemRead        53464     11.81%     92.54% # Class of committed instruction (Count)
system.cpu.commit.committedInstType_0::MemWrite        27325      6.04%     98.58% # Class of committed instruction (Count)
system.cpu.commit.committedInstType_0::FloatMemRead         4115      0.91%     99.49% # Class of committed instruction (Count)
system.cpu.commit.committedInstType_0::FloatMemWrite         2300      0.51%    100.00% # Class of committed instruction (Count)
system.cpu.commit.committedInstType_0::IprAccess            0      0.00%    100.00% # Class of committed instruction (Count)
system.cpu.commit.committedInstType_0::InstPrefetch            0      0.00%    100.00% # Class of committed instruction (Count)
system.cpu.commit.committedInstType_0::SimdUnitStrideLoad            0      0.00%    100.00% # Class of committed instruction (Count)
system.cpu.commit.committedInstType_0::SimdUnitStrideStore            0      0.00%    100.00% # Class of committed instruction (Count)
system.cpu.commit.committedInstType_0::SimdUnitStrideMaskLoad            0      0.00%    100.00% # Class of committed instruction (Count)
system.cpu.commit.committedInstType_0::SimdUnitStrideMaskStore            0      0.00%    100.00% # Class of committed instruction (Count)
system.cpu.commit.committedInstType_0::SimdStridedLoad            0      0.00%    100.00% # Class of committed instruction (Count)
system.cpu.commit.committedInstType_0::SimdStridedStore            0      0.00%    100.00% # Class of committed instruction (Count)
system.cpu.commit.committedInstType_0::SimdIndexedLoad            0      0.00%    100.00% # Class of committed instruction (Count)
system.cpu.commit.committedInstType_0::SimdIndexedStore            0      0.00%    100.00% # Class of committed instruction (Count)
system.cpu.commit.committedInstType_0::SimdWholeRegisterLoad            0      0.00%    100.00% # Class of committed instruction (Count)
system.cpu.commit.committedInstType_0::SimdWholeRegisterStore            0      0.00%    100.00% # Class of committed instruction (Count)
system.cpu.commit.committedInstType_0::SimdUnitStrideFaultOnlyFirstLoad            0      0.00%    100.00% # Class of committed instruction (Count)
system.cpu.commit.committedInstType_0::SimdUnitStrideSegmentedLoad            0      0.00%    100.00% # Class of committed instruction (Count)
system.cpu.commit.committedInstType_0::SimdUnitStrideSegmentedStore            0      0.00%    100.00% # Class of committed instruction (Count)
system.cpu.commit.committedInstType_0::SimdExt            0      0.00%    100.00% # Class of committed instruction (Count)
system.cpu.commit.committedInstType_0::SimdFloatExt            0      0.00%    100.00% # Class of committed instruction (Count)
system.cpu.commit.committedInstType_0::SimdConfig            0      0.00%    100.00% # Class of committed instruction (Count)
system.cpu.commit.committedInstType_0::total       452538                       # Class of committed instruction (Count)
system.cpu.commit.commitEligibleSamples         75998                       # number cycles where commit BW limit reached (Cycle)
system.cpu.commitStats0.numInsts               227804                       # Number of instructions committed (thread level) (Count)
system.cpu.commitStats0.numOps                 452538                       # Number of ops (including micro ops) committed (thread level) (Count)
system.cpu.commitStats0.numInstsNotNOP         227804                       # Number of instructions committed excluding NOPs or prefetches (Count)
system.cpu.commitStats0.numOpsNotNOP           452538                       # Number of Ops (including micro ops) Simulated (Count)
system.cpu.commitStats0.cpi                  2.309727                       # CPI: cycles per instruction (thread level) ((Cycle/Count))
system.cpu.commitStats0.ipc                  0.432952                       # IPC: instructions per cycle (thread level) ((Count/Cycle))
system.cpu.commitStats0.numMemRefs              87204                       # Number of memory references committed (Count)
system.cpu.commitStats0.numFpInsts              18517                       # Number of float instructions (Count)
system.cpu.commitStats0.numIntInsts            438763                       # Number of integer instructions (Count)
system.cpu.commitStats0.numLoadInsts            57579                       # Number of load instructions (Count)
system.cpu.commitStats0.numStoreInsts           29625                       # Number of store instructions (Count)
system.cpu.commitStats0.numVecInsts                 0                       # Number of vector instructions (Count)
system.cpu.commitStats0.committedInstType::No_OpClass         1584      0.35%      0.35% # Class of committed instruction. (Count)
system.cpu.commitStats0.committedInstType::IntAlu       348219     76.95%     77.30% # Class of committed instruction. (Count)
system.cpu.commitStats0.committedInstType::IntMult          845      0.19%     77.48% # Class of committed instruction. (Count)
system.cpu.commitStats0.committedInstType::IntDiv         3136      0.69%     78.18% # Class of committed instruction. (Count)
system.cpu.commitStats0.committedInstType::FloatAdd          885      0.20%     78.37% # Class of committed instruction. (Count)
system.cpu.commitStats0.committedInstType::FloatCmp            0      0.00%     78.37% # Class of committed instruction. (Count)
system.cpu.commitStats0.committedInstType::FloatCvt          272      0.06%     78.43% # Class of committed instruction. (Count)
system.cpu.commitStats0.committedInstType::FloatMult            0      0.00%     78.43% # Class of committed instruction. (Count)
system.cpu.commitStats0.committedInstType::FloatMultAcc            0      0.00%     78.43% # Class of committed instruction. (Count)
system.cpu.commitStats0.committedInstType::FloatDiv            0      0.00%     78.43% # Class of committed instruction. (Count)
system.cpu.commitStats0.committedInstType::FloatMisc            0      0.00%     78.43% # Class of committed instruction. (Count)
system.cpu.commitStats0.committedInstType::FloatSqrt            0      0.00%     78.43% # Class of committed instruction. (Count)
system.cpu.commitStats0.committedInstType::SimdAdd         1414      0.31%     78.75% # Class of committed instruction. (Count)
system.cpu.commitStats0.committedInstType::SimdAddAcc            0      0.00%     78.75% # Class of committed instruction. (Count)
system.cpu.commitStats0.committedInstType::SimdAlu         2636      0.58%     79.33% # Class of committed instruction. (Count)
system.cpu.commitStats0.committedInstType::SimdCmp            0      0.00%     79.33% # Class of committed instruction. (Count)
system.cpu.commitStats0.committedInstType::SimdCvt         3170      0.70%     80.03% # Class of committed instruction. (Count)
system.cpu.commitStats0.committedInstType::SimdMisc         2455      0.54%     80.57% # Class of committed instruction. (Count)
system.cpu.commitStats0.committedInstType::SimdMult            0      0.00%     80.57% # Class of committed instruction. (Count)
system.cpu.commitStats0.committedInstType::SimdMultAcc            0      0.00%     80.57% # Class of committed instruction. (Count)
system.cpu.commitStats0.committedInstType::SimdMatMultAcc            0      0.00%     80.57% # Class of committed instruction. (Count)
system.cpu.commitStats0.committedInstType::SimdShift          615      0.14%     80.71% # Class of committed instruction. (Count)
system.cpu.commitStats0.committedInstType::SimdShiftAcc            0      0.00%     80.71% # Class of committed instruction. (Count)
system.cpu.commitStats0.committedInstType::SimdDiv            0      0.00%     80.71% # Class of committed instruction. (Count)
system.cpu.commitStats0.committedInstType::SimdSqrt            0      0.00%     80.71% # Class of committed instruction. (Count)
system.cpu.commitStats0.committedInstType::SimdFloatAdd           44      0.01%     80.72% # Class of committed instruction. (Count)
system.cpu.commitStats0.committedInstType::SimdFloatAlu            0      0.00%     80.72% # Class of committed instruction. (Count)
system.cpu.commitStats0.committedInstType::SimdFloatCmp            0      0.00%     80.72% # Class of committed instruction. (Count)
system.cpu.commitStats0.committedInstType::SimdFloatCvt           40      0.01%     80.73% # Class of committed instruction. (Count)
system.cpu.commitStats0.committedInstType::SimdFloatDiv            7      0.00%     80.73% # Class of committed instruction. (Count)
system.cpu.commitStats0.committedInstType::SimdFloatMisc            0      0.00%     80.73% # Class of committed instruction. (Count)
system.cpu.commitStats0.committedInstType::SimdFloatMult           12      0.00%     80.73% # Class of committed instruction. (Count)
system.cpu.commitStats0.committedInstType::SimdFloatMultAcc            0      0.00%     80.73% # Class of committed instruction. (Count)
system.cpu.commitStats0.committedInstType::SimdFloatMatMultAcc            0      0.00%     80.73% # Class of committed instruction. (Count)
system.cpu.commitStats0.committedInstType::SimdFloatSqrt            0      0.00%     80.73% # Class of committed instruction. (Count)
system.cpu.commitStats0.committedInstType::SimdReduceAdd            0      0.00%     80.73% # Class of committed instruction. (Count)
system.cpu.commitStats0.committedInstType::SimdReduceAlu            0      0.00%     80.73% # Class of committed instruction. (Count)
system.cpu.commitStats0.committedInstType::SimdReduceCmp            0      0.00%     80.73% # Class of committed instruction. (Count)
system.cpu.commitStats0.committedInstType::SimdFloatReduceAdd            0      0.00%     80.73% # Class of committed instruction. (Count)
system.cpu.commitStats0.committedInstType::SimdFloatReduceCmp            0      0.00%     80.73% # Class of committed instruction. (Count)
system.cpu.commitStats0.committedInstType::SimdAes            0      0.00%     80.73% # Class of committed instruction. (Count)
system.cpu.commitStats0.committedInstType::SimdAesMix            0      0.00%     80.73% # Class of committed instruction. (Count)
system.cpu.commitStats0.committedInstType::SimdSha1Hash            0      0.00%     80.73% # Class of committed instruction. (Count)
system.cpu.commitStats0.committedInstType::SimdSha1Hash2            0      0.00%     80.73% # Class of committed instruction. (Count)
system.cpu.commitStats0.committedInstType::SimdSha256Hash            0      0.00%     80.73% # Class of committed instruction. (Count)
system.cpu.commitStats0.committedInstType::SimdSha256Hash2            0      0.00%     80.73% # Class of committed instruction. (Count)
system.cpu.commitStats0.committedInstType::SimdShaSigma2            0      0.00%     80.73% # Class of committed instruction. (Count)
system.cpu.commitStats0.committedInstType::SimdShaSigma3            0      0.00%     80.73% # Class of committed instruction. (Count)
system.cpu.commitStats0.committedInstType::SimdPredAlu            0      0.00%     80.73% # Class of committed instruction. (Count)
system.cpu.commitStats0.committedInstType::Matrix            0      0.00%     80.73% # Class of committed instruction. (Count)
system.cpu.commitStats0.committedInstType::MatrixMov            0      0.00%     80.73% # Class of committed instruction. (Count)
system.cpu.commitStats0.committedInstType::MatrixOP            0      0.00%     80.73% # Class of committed instruction. (Count)
system.cpu.commitStats0.committedInstType::MemRead        53464     11.81%     92.54% # Class of committed instruction. (Count)
system.cpu.commitStats0.committedInstType::MemWrite        27325      6.04%     98.58% # Class of committed instruction. (Count)
system.cpu.commitStats0.committedInstType::FloatMemRead         4115      0.91%     99.49% # Class of committed instruction. (Count)
system.cpu.commitStats0.committedInstType::FloatMemWrite         2300      0.51%    100.00% # Class of committed instruction. (Count)
system.cpu.commitStats0.committedInstType::IprAccess            0      0.00%    100.00% # Class of committed instruction. (Count)
system.cpu.commitStats0.committedInstType::InstPrefetch            0      0.00%    100.00% # Class of committed instruction. (Count)
system.cpu.commitStats0.committedInstType::SimdUnitStrideLoad            0      0.00%    100.00% # Class of committed instruction. (Count)
system.cpu.commitStats0.committedInstType::SimdUnitStrideStore            0      0.00%    100.00% # Class of committed instruction. (Count)
system.cpu.commitStats0.committedInstType::SimdUnitStrideMaskLoad            0      0.00%    100.00% # Class of committed instruction. (Count)
system.cpu.commitStats0.committedInstType::SimdUnitStrideMaskStore            0      0.00%    100.00% # Class of committed instruction. (Count)
system.cpu.commitStats0.committedInstType::SimdStridedLoad            0      0.00%    100.00% # Class of committed instruction. (Count)
system.cpu.commitStats0.committedInstType::SimdStridedStore            0      0.00%    100.00% # Class of committed instruction. (Count)
system.cpu.commitStats0.committedInstType::SimdIndexedLoad            0      0.00%    100.00% # Class of committed instruction. (Count)
system.cpu.commitStats0.committedInstType::SimdIndexedStore            0      0.00%    100.00% # Class of committed instruction. (Count)
system.cpu.commitStats0.committedInstType::SimdWholeRegisterLoad            0      0.00%    100.00% # Class of committed instruction. (Count)
system.cpu.commitStats0.committedInstType::SimdWholeRegisterStore            0      0.00%    100.00% # Class of committed instruction. (Count)
system.cpu.commitStats0.committedInstType::SimdUnitStrideFaultOnlyFirstLoad            0      0.00%    100.00% # Class of committed instruction. (Count)
system.cpu.commitStats0.committedInstType::SimdUnitStrideSegmentedLoad            0      0.00%    100.00% # Class of committed instruction. (Count)
system.cpu.commitStats0.committedInstType::SimdUnitStrideSegmentedStore            0      0.00%    100.00% # Class of committed instruction. (Count)
system.cpu.commitStats0.committedInstType::SimdExt            0      0.00%    100.00% # Class of committed instruction. (Count)
system.cpu.commitStats0.committedInstType::SimdFloatExt            0      0.00%    100.00% # Class of committed instruction. (Count)
system.cpu.commitStats0.committedInstType::SimdConfig            0      0.00%    100.00% # Class of committed instruction. (Count)
system.cpu.commitStats0.committedInstType::total       452538                       # Class of committed instruction. (Count)
system.cpu.commitStats0.committedControl::IsControl        49821                       # Class of control type instructions committed (Count)
system.cpu.commitStats0.committedControl::IsDirectControl        45886                       # Class of control type instructions committed (Count)
system.cpu.commitStats0.committedControl::IsIndirectControl         3848                       # Class of control type instructions committed (Count)
system.cpu.commitStats0.committedControl::IsCondControl        40452                       # Class of control type instructions committed (Count)
system.cpu.commitStats0.committedControl::IsUncondControl         9282                       # Class of control type instructions committed (Count)
system.cpu.commitStats0.committedControl::IsCall         2520                       # Class of control type instructions committed (Count)
system.cpu.commitStats0.committedControl::IsReturn         2513                       # Class of control type instructions committed (Count)
system.cpu.dcache.demandHits::cpu.data          86804                       # number of demand (read+write) hits (Count)
system.cpu.dcache.demandHits::total             86804                       # number of demand (read+write) hits (Count)
system.cpu.dcache.overallHits::cpu.data         86804                       # number of overall hits (Count)
system.cpu.dcache.overallHits::total            86804                       # number of overall hits (Count)
system.cpu.dcache.demandMisses::cpu.data         5941                       # number of demand (read+write) misses (Count)
system.cpu.dcache.demandMisses::total            5941                       # number of demand (read+write) misses (Count)
system.cpu.dcache.overallMisses::cpu.data         5941                       # number of overall misses (Count)
system.cpu.dcache.overallMisses::total           5941                       # number of overall misses (Count)
system.cpu.dcache.demandMissLatency::cpu.data    224369499                       # number of demand (read+write) miss ticks (Tick)
system.cpu.dcache.demandMissLatency::total    224369499                       # number of demand (read+write) miss ticks (Tick)
system.cpu.dcache.overallMissLatency::cpu.data    224369499                       # number of overall miss ticks (Tick)
system.cpu.dcache.overallMissLatency::total    224369499                       # number of overall miss ticks (Tick)
[...]
system.mem_ctrl.requestorReadAvgLat::cpu.inst     25853.81                       # Per-requestor read average memory access latency ((Tick/Count))
system.mem_ctrl.requestorReadAvgLat::cpu.data     29010.20                       # Per-requestor read average memory access latency ((Tick/Count))
system.mem_ctrl.dram.bytesRead::cpu.inst       117440                       # Number of bytes read from this memory (Byte)
system.mem_ctrl.dram.bytesRead::cpu.data       108224                       # Number of bytes read from this memory (Byte)
system.mem_ctrl.dram.bytesRead::total          225664                       # Number of bytes read from this memory (Byte)
system.mem_ctrl.dram.bytesInstRead::cpu.inst       117440                       # Number of instructions bytes read from this memory (Byte)
system.mem_ctrl.dram.bytesInstRead::total       117440                       # Number of instructions bytes read from this memory (Byte)
system.mem_ctrl.dram.numReads::cpu.inst          1835                       # Number of read requests responded to by this memory (Count)
system.mem_ctrl.dram.numReads::cpu.data          1691                       # Number of read requests responded to by this memory (Count)
system.mem_ctrl.dram.numReads::total             3526                       # Number of read requests responded to by this memory (Count)
system.mem_ctrl.dram.bwRead::cpu.inst       446400742                       # Total read bandwidth from this memory ((Byte/Second))
system.mem_ctrl.dram.bwRead::cpu.data       411369839                       # Total read bandwidth from this memory ((Byte/Second))
system.mem_ctrl.dram.bwRead::total          857770581                       # Total read bandwidth from this memory ((Byte/Second))
system.mem_ctrl.dram.bwInstRead::cpu.inst    446400742                       # Instruction read bandwidth from this memory ((Byte/Second))
system.mem_ctrl.dram.bwInstRead::total      446400742                       # Instruction read bandwidth from this memory ((Byte/Second))
system.mem_ctrl.dram.bwTotal::cpu.inst      446400742                       # Total bandwidth to/from this memory ((Byte/Second))
system.mem_ctrl.dram.bwTotal::cpu.data      411369839                       # Total bandwidth to/from this memory ((Byte/Second))
system.mem_ctrl.dram.bwTotal::total         857770581                       # Total bandwidth to/from this memory ((Byte/Second))
system.mem_ctrl.dram.readBursts                  3526                       # Number of DRAM read bursts (Count)
system.mem_ctrl.dram.writeBursts                    0                       # Number of DRAM write bursts (Count)
system.mem_ctrl.dram.perBankRdBursts::0           332                       # Per bank write bursts (Count)
system.mem_ctrl.dram.perBankRdBursts::1           242                       # Per bank write bursts (Count)
system.mem_ctrl.dram.perBankRdBursts::2           310                       # Per bank write bursts (Count)
system.mem_ctrl.dram.perBankRdBursts::3           224                       # Per bank write bursts (Count)
system.mem_ctrl.dram.perBankRdBursts::4           211                       # Per bank write bursts (Count)
system.mem_ctrl.dram.perBankRdBursts::5           169                       # Per bank write bursts (Count)
system.mem_ctrl.dram.perBankRdBursts::6           202                       # Per bank write bursts (Count)
system.mem_ctrl.dram.perBankRdBursts::7           182                       # Per bank write bursts (Count)
system.mem_ctrl.dram.perBankRdBursts::8           204                       # Per bank write bursts (Count)
system.mem_ctrl.dram.perBankRdBursts::9           253                       # Per bank write bursts (Count)
system.mem_ctrl.dram.perBankRdBursts::10          167                       # Per bank write bursts (Count)
system.mem_ctrl.dram.perBankRdBursts::11          263                       # Per bank write bursts (Count)
system.mem_ctrl.dram.perBankRdBursts::12          218                       # Per bank write bursts (Count)
system.mem_ctrl.dram.perBankRdBursts::13          196                       # Per bank write bursts (Count)
system.mem_ctrl.dram.perBankRdBursts::14          163                       # Per bank write bursts (Count)
system.mem_ctrl.dram.perBankRdBursts::15          190                       # Per bank write bursts (Count)
system.mem_ctrl.dram.perBankWrBursts::0             0                       # Per bank write bursts (Count)
system.mem_ctrl.dram.perBankWrBursts::1             0                       # Per bank write bursts (Count)
system.mem_ctrl.dram.perBankWrBursts::2             0                       # Per bank write bursts (Count)
system.mem_ctrl.dram.perBankWrBursts::3             0                       # Per bank write bursts (Count)
system.mem_ctrl.dram.perBankWrBursts::4             0                       # Per bank write bursts (Count)
system.mem_ctrl.dram.perBankWrBursts::5             0                       # Per bank write bursts (Count)
system.mem_ctrl.dram.perBankWrBursts::6             0                       # Per bank write bursts (Count)
system.mem_ctrl.dram.perBankWrBursts::7             0                       # Per bank write bursts (Count)
system.mem_ctrl.dram.perBankWrBursts::8             0                       # Per bank write bursts (Count)
system.mem_ctrl.dram.perBankWrBursts::9             0                       # Per bank write bursts (Count)
system.mem_ctrl.dram.perBankWrBursts::10            0                       # Per bank write bursts (Count)
system.mem_ctrl.dram.perBankWrBursts::11            0                       # Per bank write bursts (Count)
system.mem_ctrl.dram.perBankWrBursts::12            0                       # Per bank write bursts (Count)
system.mem_ctrl.dram.perBankWrBursts::13            0                       # Per bank write bursts (Count)
system.mem_ctrl.dram.perBankWrBursts::14            0                       # Per bank write bursts (Count)
system.mem_ctrl.dram.perBankWrBursts::15            0                       # Per bank write bursts (Count)
system.mem_ctrl.dram.totQLat                 30385500                       # Total ticks spent queuing (Tick)
system.mem_ctrl.dram.totBusLat               17630000                       # Total ticks spent in databus transfers (Tick)
system.mem_ctrl.dram.totMemAccLat            96498000                       # Total ticks spent from burst creation until serviced by the DRAM (Tick)
system.mem_ctrl.dram.avgQLat                  8617.56                       # Average queueing delay per DRAM burst ((Tick/Count))
system.mem_ctrl.dram.avgBusLat                5000.00                       # Average bus latency per DRAM burst ((Tick/Count))
system.mem_ctrl.dram.avgMemAccLat            27367.56                       # Average memory access latency per DRAM burst ((Tick/Count))
system.mem_ctrl.dram.readRowHits                 2746                       # Number of row buffer hits during reads (Count)
system.mem_ctrl.dram.writeRowHits                   0                       # Number of row buffer hits during writes (Count)
system.mem_ctrl.dram.readRowHitRate             77.88                       # Row buffer hit rate for reads (Ratio)
system.mem_ctrl.dram.writeRowHitRate              nan                       # Row buffer hit rate for writes (Ratio)
system.mem_ctrl.dram.bytesPerActivate::samples          765                       # Bytes accessed per row activation (Byte)
system.mem_ctrl.dram.bytesPerActivate::mean   292.726797                       # Bytes accessed per row activation (Byte)
system.mem_ctrl.dram.bytesPerActivate::gmean   180.465699                       # Bytes accessed per row activation (Byte)
system.mem_ctrl.dram.bytesPerActivate::stdev   302.721607                       # Bytes accessed per row activation (Byte)
system.mem_ctrl.dram.bytesPerActivate::0-127          266     34.77%     34.77% # Bytes accessed per row activation (Byte)
system.mem_ctrl.dram.bytesPerActivate::128-255          203     26.54%     61.31% # Bytes accessed per row activation (Byte)
system.mem_ctrl.dram.bytesPerActivate::256-383           88     11.50%     72.81% # Bytes accessed per row activation (Byte)
system.mem_ctrl.dram.bytesPerActivate::384-511           49      6.41%     79.22% # Bytes accessed per row activation (Byte)
system.mem_ctrl.dram.bytesPerActivate::512-639           35      4.58%     83.79% # Bytes accessed per row activation (Byte)
system.mem_ctrl.dram.bytesPerActivate::640-767           22      2.88%     86.67% # Bytes accessed per row activation (Byte)
system.mem_ctrl.dram.bytesPerActivate::768-895           25      3.27%     89.93% # Bytes accessed per row activation (Byte)
system.mem_ctrl.dram.bytesPerActivate::896-1023           15      1.96%     91.90% # Bytes accessed per row activation (Byte)
system.mem_ctrl.dram.bytesPerActivate::1024-1151           62      8.10%    100.00% # Bytes accessed per row activation (Byte)
system.mem_ctrl.dram.bytesPerActivate::total          765                       # Bytes accessed per row activation (Byte)
system.mem_ctrl.dram.dramBytesRead             225664                       # Total bytes read (Byte)
system.mem_ctrl.dram.dramBytesWritten               0                       # Total bytes written (Byte)
system.mem_ctrl.dram.avgRdBW               857.770581                       # Average DRAM read bandwidth in MiBytes/s ((Byte/Second))
system.mem_ctrl.dram.avgWrBW                        0                       # Average DRAM write bandwidth in MiBytes/s ((Byte/Second))
system.mem_ctrl.dram.peakBW                  12800.00                       # Theoretical peak bandwidth in MiByte/s ((Byte/Second))
system.mem_ctrl.dram.busUtil                     6.70                       # Data bus utilization in percentage (Ratio)
system.mem_ctrl.dram.busUtilRead                 6.70                       # Data bus utilization in percentage for reads (Ratio)
system.mem_ctrl.dram.busUtilWrite                0.00                       # Data bus utilization in percentage for writes (Ratio)
system.mem_ctrl.dram.pageHitRate                77.88                       # Row buffer hit rate, read and write combined (Ratio)
system.mem_ctrl.dram.power_state.pwrStateResidencyTicks::UNDEFINED    263082000                       # Cumulative time (in ticks) in various power states (Tick)
system.mem_ctrl.dram.rank0.actEnergy          2641800                       # Energy for activate commands per rank (pJ) (Joule)
system.mem_ctrl.dram.rank0.preEnergy          1373790                       # Energy for precharge commands per rank (pJ) (Joule)
system.mem_ctrl.dram.rank0.readEnergy        13366080                       # Energy for read commands per rank (pJ) (Joule)
system.mem_ctrl.dram.rank0.writeEnergy              0                       # Energy for write commands per rank (pJ) (Joule)
system.mem_ctrl.dram.rank0.refreshEnergy 20283120.000000                       # Energy for refresh commands per rank (pJ) (Joule)
system.mem_ctrl.dram.rank0.actBackEnergy    112484370                       # Energy for active background per rank (pJ) (Joule)
system.mem_ctrl.dram.rank0.preBackEnergy      6300000                       # Energy for precharge background per rank (pJ) (Joule)
system.mem_ctrl.dram.rank0.actPowerDownEnergy            0                       # Energy for active power-down per rank (pJ) (Joule)
system.mem_ctrl.dram.rank0.prePowerDownEnergy            0                       # Energy for precharge power-down per rank (pJ) (Joule)
system.mem_ctrl.dram.rank0.selfRefreshEnergy            0                       # Energy for self refresh per rank (pJ) (Joule)
system.mem_ctrl.dram.rank0.totalEnergy      156449160                       # Total energy per rank (pJ) (Joule)
system.mem_ctrl.dram.rank0.averagePower    594.678313                       # Core power per rank (mW) (Watt)
system.mem_ctrl.dram.rank0.totalIdleTime            0                       # Total Idle time Per DRAM Rank (Tick)
system.mem_ctrl.dram.rank0.pwrStateTime::IDLE     15435000                       # Time in different power states (Tick)
system.mem_ctrl.dram.rank0.pwrStateTime::REF      8580000                       # Time in different power states (Tick)
system.mem_ctrl.dram.rank0.pwrStateTime::SREF            0                       # Time in different power states (Tick)
system.mem_ctrl.dram.rank0.pwrStateTime::PRE_PDN            0                       # Time in different power states (Tick)
system.mem_ctrl.dram.rank0.pwrStateTime::ACT    239067000                       # Time in different power states (Tick)
system.mem_ctrl.dram.rank0.pwrStateTime::ACT_PDN            0                       # Time in different power states (Tick)
system.mem_ctrl.dram.rank1.actEnergy          2927400                       # Energy for activate commands per rank (pJ) (Joule)
system.mem_ctrl.dram.rank1.preEnergy          1529385                       # Energy for precharge commands per rank (pJ) (Joule)
system.mem_ctrl.dram.rank1.readEnergy        11809560                       # Energy for read commands per rank (pJ) (Joule)
system.mem_ctrl.dram.rank1.writeEnergy              0                       # Energy for write commands per rank (pJ) (Joule)
system.mem_ctrl.dram.rank1.refreshEnergy 20283120.000000                       # Energy for refresh commands per rank (pJ) (Joule)
system.mem_ctrl.dram.rank1.actBackEnergy    107072220                       # Energy for active background per rank (pJ) (Joule)
system.mem_ctrl.dram.rank1.preBackEnergy     10857600                       # Energy for precharge background per rank (pJ) (Joule)
system.mem_ctrl.dram.rank1.actPowerDownEnergy            0                       # Energy for active power-down per rank (pJ) (Joule)
system.mem_ctrl.dram.rank1.prePowerDownEnergy            0                       # Energy for precharge power-down per rank (pJ) (Joule)
system.mem_ctrl.dram.rank1.selfRefreshEnergy            0                       # Energy for self refresh per rank (pJ) (Joule)
system.mem_ctrl.dram.rank1.totalEnergy      154479285                       # Total energy per rank (pJ) (Joule)
system.mem_ctrl.dram.rank1.averagePower    587.190629                       # Core power per rank (mW) (Watt)
system.mem_ctrl.dram.rank1.totalIdleTime            0                       # Total Idle time Per DRAM Rank (Tick)
system.mem_ctrl.dram.rank1.pwrStateTime::IDLE     27277250                       # Time in different power states (Tick)
system.mem_ctrl.dram.rank1.pwrStateTime::REF      8580000                       # Time in different power states (Tick)
system.mem_ctrl.dram.rank1.pwrStateTime::SREF            0                       # Time in different power states (Tick)
system.mem_ctrl.dram.rank1.pwrStateTime::PRE_PDN            0                       # Time in different power states (Tick)
system.mem_ctrl.dram.rank1.pwrStateTime::ACT    227224750                       # Time in different power states (Tick)
system.mem_ctrl.dram.rank1.pwrStateTime::ACT_PDN            0                       # Time in different power states (Tick)
system.mem_ctrl.power_state.pwrStateResidencyTicks::UNDEFINED    263082000                       # Cumulative time (in ticks) in various power states (Tick)
system.membus.transDist::ReadResp                3126                       # Transaction distribution (Count)
system.membus.transDist::ReadExReq                400                       # Transaction distribution (Count)
system.membus.transDist::ReadExResp               400                       # Transaction distribution (Count)
system.membus.transDist::ReadSharedReq           3126                       # Transaction distribution (Count)
system.membus.pktCount_system.l2cache.mem_side_port::system.mem_ctrl.port         7052                       # Packet count per connected requestor and responder (Count)
system.membus.pktCount_system.l2cache.mem_side_port::total         7052                       # Packet count per connected requestor and responder (Count)
system.membus.pktCount::total                    7052                       # Packet count per connected requestor and responder (Count)
system.membus.pktSize_system.l2cache.mem_side_port::system.mem_ctrl.port       225664                       # Cumulative packet size per connected requestor and responder (Byte)
system.membus.pktSize_system.l2cache.mem_side_port::total       225664                       # Cumulative packet size per connected requestor and responder (Byte)
system.membus.pktSize::total                   225664                       # Cumulative packet size per connected requestor and responder (Byte)
system.membus.snoops                                0                       # Total snoops (Count)
system.membus.snoopTraffic                          0                       # Total snoop traffic (Byte)
system.membus.snoopFanout::samples               3526                       # Request fanout histogram (Count)
system.membus.snoopFanout::mean                     0                       # Request fanout histogram (Count)
system.membus.snoopFanout::stdev                    0                       # Request fanout histogram (Count)
system.membus.snoopFanout::underflows               0      0.00%      0.00% # Request fanout histogram (Count)
system.membus.snoopFanout::0                     3526    100.00%    100.00% # Request fanout histogram (Count)
system.membus.snoopFanout::1                        0      0.00%    100.00% # Request fanout histogram (Count)
system.membus.snoopFanout::overflows                0      0.00%    100.00% # Request fanout histogram (Count)
system.membus.snoopFanout::min_value                0                       # Request fanout histogram (Count)
system.membus.snoopFanout::max_value                0                       # Request fanout histogram (Count)
system.membus.snoopFanout::total                 3526                       # Request fanout histogram (Count)
system.membus.power_state.pwrStateResidencyTicks::UNDEFINED    263082000                       # Cumulative time (in ticks) in various power states (Tick)
system.membus.reqLayer2.occupancy             1763000                       # Layer occupancy (ticks) (Tick)
system.membus.reqLayer2.utilization               0.0                       # Layer utilization (Ratio)
system.membus.respLayer0.occupancy            9577000                       # Layer occupancy (ticks) (Tick)
system.membus.respLayer0.utilization              0.0                       # Layer utilization (Ratio)
system.membus.snoop_filter.totRequests           3526                       # Total number of requests made to the snoop filter. (Count)
system.membus.snoop_filter.hitSingleRequests            0                       # Number of requests hitting in the snoop filter with a single holder of the requested data. (Count)
system.membus.snoop_filter.hitMultiRequests            0                       # Number of requests hitting in the snoop filter with multiple (>1) holders of the requested data. (Count)
system.membus.snoop_filter.totSnoops                0                       # Total number of snoops made to the snoop filter. (Count)
system.membus.snoop_filter.hitSingleSnoops            0                       # Number of snoops hitting in the snoop filter with a single holder of the requested data. (Count)
system.membus.snoop_filter.hitMultiSnoops            0                       # Number of snoops hitting in the snoop filter with multiple (>1) holders of the requested data. (Count)
system.workload.inst.arm                            0                       # number of arm instructions executed (Count)
system.workload.inst.quiesce                        0                       # number of quiesce instructions executed (Count)

---------- End Simulation Statistics   ----------
