
---------- Begin Simulation Statistics ----------
simSeconds                                   0.015049                       # Number of seconds simulated (Second)
simTicks                                  15048849000                       # Number of ticks simulated (Tick)
finalTick                                 15048849000                       # Number of ticks from beginning of simulation (restored from checkpoints and never reset) (Tick)
simFreq                                  1000000000000                       # The number of ticks per simulated second ((Tick/Second))
hostSeconds                                    233.76                       # Real time elapsed on the host (Second)
hostTickRate                                 64377691                       # The number of ticks simulated per host second (ticks/s) ((Tick/Second))
hostMemory                                     864076                       # Number of bytes of host memory used (Byte)
simInsts                                     47165717                       # Number of instructions simulated (Count)
simOps                                       77513943                       # Number of ops (including micro ops) simulated (Count)
hostInstRate                                   201771                       # Simulator instruction rate (inst/s) ((Count/Second))
hostOpRate                                     331598                       # Simulator op (including micro ops) rate (op/s) ((Count/Second))
system.clk_domain.clock                           500                       # Clock period in ticks (Tick)
system.clk_domain.voltage_domain.voltage            1                       # Voltage in Volts (Volt)
system.cpu.numCycles                         30097699                       # Number of cpu cycles simulated (Cycle)
system.cpu.cpi                               0.638127                       # CPI: cycles per instruction (core level) ((Cycle/Count))
system.cpu.ipc                               1.567087                       # IPC: instructions per cycle (core level) ((Count/Cycle))
system.cpu.numWorkItemsStarted                      0                       # Number of work items this cpu started (Count)
system.cpu.numWorkItemsCompleted                    0                       # Number of work items this cpu completed (Count)
system.cpu.instsAdded                        81244760                       # Number of instructions added to the IQ (excludes non-spec) (Count)
system.cpu.nonSpecInstsAdded                     1047                       # Number of non-speculative instructions added to the IQ (Count)
system.cpu.instsIssued                       80356624                       # Number of instructions issued (Count)
system.cpu.squashedInstsIssued                  42774                       # Number of squashed instructions issued (Count)
system.cpu.squashedInstsExamined              3731858                       # Number of squashed instructions iterated over during squash; mainly for profiling (Count)
system.cpu.squashedOperandsExamined           4808468                       # Number of squashed operands that are examined and possibly removed from graph (Count)
system.cpu.squashedNonSpecRemoved                 147                       # Number of squashed non-spec instructions that were removed (Count)
system.cpu.numIssuedDist::samples            29972809                       # Number of insts issued each cycle (Count)
system.cpu.numIssuedDist::mean               2.680984                       # Number of insts issued each cycle (Count)
system.cpu.numIssuedDist::stdev              1.363284                       # Number of insts issued each cycle (Count)
system.cpu.numIssuedDist::underflows                0      0.00%      0.00% # Number of insts issued each cycle (Count)
system.cpu.numIssuedDist::0                   3014013     10.06%     10.06% # Number of insts issued each cycle (Count)
system.cpu.numIssuedDist::1                   3793597     12.66%     22.71% # Number of insts issued each cycle (Count)
system.cpu.numIssuedDist::2                   4694113     15.66%     38.37% # Number of insts issued each cycle (Count)
system.cpu.numIssuedDist::3                   6709543     22.39%     60.76% # Number of insts issued each cycle (Count)
system.cpu.numIssuedDist::4                  11761543     39.24%    100.00% # Number of insts issued each cycle (Count)
system.cpu.numIssuedDist::overflows                 0      0.00%    100.00% # Number of insts issued each cycle (Count)
system.cpu.numIssuedDist::min_value                 0                       # Number of insts issued each cycle (Count)
system.cpu.numIssuedDist::max_value                 4                       # Number of insts issued each cycle (Count)
system.cpu.numIssuedDist::total              29972809                       # Number of insts issued each cycle (Count)
system.cpu.statFuBusy::No_OpClass                   0                       # attempts to use FU when none available (Count)
system.cpu.statFuBusy::IntAlu                       0                       # attempts to use FU when none available (Count)
system.cpu.statFuBusy::IntMult                      0                       # attempts to use FU when none available (Count)
system.cpu.statFuBusy::IntDiv                       0                       # attempts to use FU when none available (Count)
system.cpu.statFuBusy::FloatAdd                     0                       # attempts to use FU when none available (Count)
system.cpu.statFuBusy::FloatCmp                     0                       # attempts to use FU when none available (Count)
system.cpu.statFuBusy::FloatCvt                     0                       # attempts to use FU when none available (Count)
system.cpu.statFuBusy::FloatMult                    0                       # attempts to use FU when none available (Count)
system.cpu.statFuBusy::FloatMultAcc                 0                       # attempts to use FU when none available (Count)
system.cpu.statFuBusy::FloatDiv                     0                       # attempts to use FU when none available (Count)
system.cpu.statFuBusy::FloatMisc                    0                       # attempts to use FU when none available (Count)
system.cpu.statFuBusy::FloatSqrt                    0                       # attempts to use FU when none available (Count)
system.cpu.statFuBusy::SimdAdd                      0                       # attempts to use FU when none available (Count)
system.cpu.statFuBusy::SimdAddAcc                   0                       # attempts to use FU when none available (Count)
system.cpu.statFuBusy::SimdAlu                      0                       # attempts to use FU when none available (Count)
system.cpu.statFuBusy::SimdCmp                      0                       # attempts to use FU when none available (Count)
system.cpu.statFuBusy::SimdCvt                      0                       # attempts to use FU when none available (Count)
system.cpu.statFuBusy::SimdMisc                     0                       # attempts to use FU when none available (Count)
system.cpu.statFuBusy::SimdMult                     0                       # attempts to use FU when none available (Count)
system.cpu.statFuBusy::SimdMultAcc                  0                       # attempts to use FU when none available (Count)
system.cpu.statFuBusy::SimdMatMultAcc               0                       # attempts to use FU when none available (Count)
system.cpu.statFuBusy::SimdShift                    0                       # attempts to use FU when none available (Count)
system.cpu.statFuBusy::SimdShiftAcc                 0                       # attempts to use FU when none available (Count)
system.cpu.statFuBusy::SimdDiv                      0                       # attempts to use FU when none available (Count)
system.cpu.statFuBusy::SimdSqrt                     0                       # attempts to use FU when none available (Count)
system.cpu.statFuBusy::SimdFloatAdd                 0                       # attempts to use FU when none available (Count)
system.cpu.statFuBusy::SimdFloatAlu                 0                       # attempts to use FU when none available (Count)
system.cpu.statFuBusy::SimdFloatCmp                 0                       # attempts to use FU when none available (Count)
system.cpu.statFuBusy::SimdFloatCvt                 0                       # attempts to use FU when none available (Count)
system.cpu.statFuBusy::SimdFloatDiv                 0                       # attempts to use FU when none available (Count)
system.cpu.statFuBusy::SimdFloatMisc                0                       # attempts to use FU when none available (Count)
system.cpu.statFuBusy::SimdFloatMult                0                       # attempts to use FU when none available (Count)
system.cpu.statFuBusy::SimdFloatMultAcc             0                       # attempts to use FU when none available (Count)
system.cpu.statFuBusy::SimdFloatMatMultAcc            0                       # attempts to use FU when none available (Count)
system.cpu.statFuBusy::SimdFloatSqrt                0                       # attempts to use FU when none available (Count)
system.cpu.statFuBusy::SimdReduceAdd                0                       # attempts to use FU when none available (Count)
system.cpu.statFuBusy::SimdReduceAlu                0                       # attempts to use FU when none available (Count)
system.cpu.statFuBusy::SimdReduceCmp                0                       # attempts to use FU when none available (Count)
system.cpu.statFuBusy::SimdFloatReduceAdd            0                       # attempts to use FU when none available (Count)
system.cpu.statFuBusy::SimdFloatReduceCmp            0                       # attempts to use FU when none available (Count)
system.cpu.statFuBusy::SimdAes                      0                       # attempts to use FU when none available (Count)
system.cpu.statFuBusy::SimdAesMix                   0                       # attempts to use FU when none available (Count)
system.cpu.statFuBusy::SimdSha1Hash                 0                       # attempts to use FU when none available (Count)
system.cpu.statFuBusy::SimdSha1Hash2                0                       # attempts to use FU when none available (Count)
system.cpu.statFuBusy::SimdSha256Hash               0                       # attempts to use FU when none available (Count)
system.cpu.statFuBusy::SimdSha256Hash2              0                       # attempts to use FU when none available (Count)
system.cpu.statFuBusy::SimdShaSigma2                0                       # attempts to use FU when none available (Count)
system.cpu.statFuBusy::SimdShaSigma3                0                       # attempts to use FU when none available (Count)
system.cpu.statFuBusy::SimdPredAlu                  0                       # attempts to use FU when none available (Count)
system.cpu.statFuBusy::Matrix                       0                       # attempts to use FU when none available (Count)
system.cpu.statFuBusy::MatrixMov                    0                       # attempts to use FU when none available (Count)
system.cpu.statFuBusy::MatrixOP                     0                       # attempts to use FU when none available (Count)
system.cpu.statFuBusy::MemRead                      0                       # attempts to use FU when none available (Count)
system.cpu.statFuBusy::MemWrite                     0                       # attempts to use FU when none available (Count)
system.cpu.statFuBusy::FloatMemRead                 0                       # attempts to use FU when none available (Count)
system.cpu.statFuBusy::FloatMemWrite                0                       # attempts to use FU when none available (Count)
system.cpu.statFuBusy::IprAccess                    0                       # attempts to use FU when none available (Count)
system.cpu.statFuBusy::InstPrefetch                 0                       # attempts to use FU when none available (Count)
system.cpu.statFuBusy::SimdUnitStrideLoad            0                       # attempts to use FU when none available (Count)
system.cpu.statFuBusy::SimdUnitStrideStore            0                       # attempts to use FU when none available (Count)
system.cpu.statFuBusy::SimdUnitStrideMaskLoad            0                       # attempts to use FU when none available (Count)
system.cpu.statFuBusy::SimdUnitStrideMaskStore            0                       # attempts to use FU when none available (Count)
system.cpu.statFuBusy::SimdStridedLoad              0                       # attempts to use FU when none available (Count)
system.cpu.statFuBusy::SimdStridedStore             0                       # attempts to use FU when none available (Count)
system.cpu.statFuBusy::SimdIndexedLoad              0                       # attempts to use FU when none available (Count)
system.cpu.statFuBusy::SimdIndexedStore             0                       # attempts to use FU when none available (Count)
system.cpu.statFuBusy::SimdWholeRegisterLoad            0                       # attempts to use FU when none available (Count)
system.cpu.statFuBusy::SimdWholeRegisterStore            0                       # attempts to use FU when none available (Count)
system.cpu.statFuBusy::SimdUnitStrideFaultOnlyFirstLoad            0                       # attempts to use FU when none available (Count)
system.cpu.statFuBusy::SimdUnitStrideSegmentedLoad            0                       # attempts to use FU when none available (Count)
system.cpu.statFuBusy::SimdUnitStrideSegmentedStore            0                       # attempts to use FU when none available (Count)
system.cpu.statFuBusy::SimdExt                      0                       # attempts to use FU when none available (Count)
system.cpu.statFuBusy::SimdFloatExt                 0                       # attempts to use FU when none available (Count)
system.cpu.statFuBusy::SimdConfig                   0                       # attempts to use FU when none available (Count)
system.cpu.statIssuedInstType_0::No_OpClass      1628010      2.03%      2.03% # Number of instructions issued per FU type, per thread (Count)
system.cpu.statIssuedInstType_0::IntAlu      53981256     67.18%     69.20% # Number of instructions issued per FU type, per thread (Count)
system.cpu.statIssuedInstType_0::IntMult       100972      0.13%     69.33% # Number of instructions issued per FU type, per thread (Count)
system.cpu.statIssuedInstType_0::IntDiv        230923      0.29%     69.62% # Number of instructions issued per FU type, per thread (Count)
system.cpu.statIssuedInstType_0::FloatAdd      5735826      7.14%     76.75% # Number of instructions issued per FU type, per thread (Count)
system.cpu.statIssuedInstType_0::FloatCmp            0      0.00%     76.75% # Number of instructions issued per FU type, per thread (Count)
system.cpu.statIssuedInstType_0::FloatCvt          394      0.00%     76.75% # Number of instructions issued per FU type, per thread (Count)
system.cpu.statIssuedInstType_0::FloatMult            0      0.00%     76.75% # Number of instructions issued per FU type, per thread (Count)
system.cpu.statIssuedInstType_0::FloatMultAcc            0      0.00%     76.75% # Number of instructions issued per FU type, per thread (Count)
system.cpu.statIssuedInstType_0::FloatDiv            0      0.00%     76.75% # Number of instructions issued per FU type, per thread (Count)
system.cpu.statIssuedInstType_0::FloatMisc            0      0.00%     76.75% # Number of instructions issued per FU type, per thread (Count)
system.cpu.statIssuedInstType_0::FloatSqrt            0      0.00%     76.75% # Number of instructions issued per FU type, per thread (Count)
system.cpu.statIssuedInstType_0::SimdAdd          813      0.00%     76.76% # Number of instructions issued per FU type, per thread (Count)
system.cpu.statIssuedInstType_0::SimdAddAcc            0      0.00%     76.76% # Number of instructions issued per FU type, per thread (Count)
system.cpu.statIssuedInstType_0::SimdAlu      1258257      1.57%     78.32% # Number of instructions issued per FU type, per thread (Count)
system.cpu.statIssuedInstType_0::SimdCmp            0      0.00%     78.32% # Number of instructions issued per FU type, per thread (Count)
system.cpu.statIssuedInstType_0::SimdCvt         2189      0.00%     78.32% # Number of instructions issued per FU type, per thread (Count)
system.cpu.statIssuedInstType_0::SimdMisc       167504      0.21%     78.53% # Number of instructions issued per FU type, per thread (Count)
system.cpu.statIssuedInstType_0::SimdMult            0      0.00%     78.53% # Number of instructions issued per FU type, per thread (Count)
system.cpu.statIssuedInstType_0::SimdMultAcc            0      0.00%     78.53% # Number of instructions issued per FU type, per thread (Count)
system.cpu.statIssuedInstType_0::SimdMatMultAcc            0      0.00%     78.53% # Number of instructions issued per FU type, per thread (Count)
system.cpu.statIssuedInstType_0::SimdShift          693      0.00%     78.53% # Number of instructions issued per FU type, per thread (Count)
system.cpu.statIssuedInstType_0::SimdShiftAcc            0      0.00%     78.53% # Number of instructions issued per FU type, per thread (Count)
system.cpu.statIssuedInstType_0::SimdDiv            0      0.00%     78.53% # Number of instructions issued per FU type, per thread (Count)
system.cpu.statIssuedInstType_0::SimdSqrt            0      0.00%     78.53% # Number of instructions issued per FU type, per thread (Count)
system.cpu.statIssuedInstType_0::SimdFloatAdd      2715041      3.38%     81.91% # Number of instructions issued per FU type, per thread (Count)
system.cpu.statIssuedInstType_0::SimdFloatAlu            0      0.00%     81.91% # Number of instructions issued per FU type, per thread (Count)
system.cpu.statIssuedInstType_0::SimdFloatCmp        95834      0.12%     82.03% # Number of instructions issued per FU type, per thread (Count)
system.cpu.statIssuedInstType_0::SimdFloatCvt      3224277      4.01%     86.04% # Number of instructions issued per FU type, per thread (Count)
system.cpu.statIssuedInstType_0::SimdFloatDiv        74946      0.09%     86.14% # Number of instructions issued per FU type, per thread (Count)
system.cpu.statIssuedInstType_0::SimdFloatMisc            0      0.00%     86.14% # Number of instructions issued per FU type, per thread (Count)
system.cpu.statIssuedInstType_0::SimdFloatMult      2676997      3.33%     89.47% # Number of instructions issued per FU type, per thread (Count)
system.cpu.statIssuedInstType_0::SimdFloatMultAcc            0      0.00%     89.47% # Number of instructions issued per FU type, per thread (Count)
system.cpu.statIssuedInstType_0::SimdFloatMatMultAcc            0      0.00%     89.47% # Number of instructions issued per FU type, per thread (Count)
system.cpu.statIssuedInstType_0::SimdFloatSqrt            0      0.00%     89.47% # Number of instructions issued per FU type, per thread (Count)
system.cpu.statIssuedInstType_0::SimdReduceAdd            0      0.00%     89.47% # Number of instructions issued per FU type, per thread (Count)
system.cpu.statIssuedInstType_0::SimdReduceAlu            0      0.00%     89.47% # Number of instructions issued per FU type, per thread (Count)
system.cpu.statIssuedInstType_0::SimdReduceCmp            0      0.00%     89.47% # Number of instructions issued per FU type, per thread (Count)
system.cpu.statIssuedInstType_0::SimdFloatReduceAdd            0      0.00%     89.47% # Number of instructions issued per FU type, per thread (Count)
system.cpu.statIssuedInstType_0::SimdFloatReduceCmp            0      0.00%     89.47% # Number of instructions issued per FU type, per thread (Count)
system.cpu.statIssuedInstType_0::SimdAes            0      0.00%     89.47% # Number of instructions issued per FU type, per thread (Count)
system.cpu.statIssuedInstType_0::SimdAesMix            0      0.00%     89.47% # Number of instructions issued per FU type, per thread (Count)
system.cpu.statIssuedInstType_0::SimdSha1Hash            0      0.00%     89.47% # Number of instructions issued per FU type, per thread (Count)
system.cpu.statIssuedInstType_0::SimdSha1Hash2            0      0.00%     89.47% # Number of instructions issued per FU type, per thread (Count)
system.cpu.statIssuedInstType_0::SimdSha256Hash            0      0.00%     89.47% # Number of instructions issued per FU type, per thread (Count)
system.cpu.statIssuedInstType_0::SimdSha256Hash2            0      0.00%     89.47% # Number of instructions issued per FU type, per thread (Count)
system.cpu.statIssuedInstType_0::SimdShaSigma2            0      0.00%     89.47% # Number of instructions issued per FU type, per thread (Count)
system.cpu.statIssuedInstType_0::SimdShaSigma3            0      0.00%     89.47% # Number of instructions issued per FU type, per thread (Count)
system.cpu.statIssuedInstType_0::SimdPredAlu            0      0.00%     89.47% # Number of instructions issued per FU type, per thread (Count)
system.cpu.statIssuedInstType_0::Matrix             0      0.00%     89.47% # Number of instructions issued per FU type, per thread (Count)
system.cpu.statIssuedInstType_0::MatrixMov            0      0.00%     89.47% # Number of instructions issued per FU type, per thread (Count)
system.cpu.statIssuedInstType_0::MatrixOP            0      0.00%     89.47% # Number of instructions issued per FU type, per thread (Count)
system.cpu.statIssuedInstType_0::MemRead      1493631      1.86%     91.33% # Number of instructions issued per FU type, per thread (Count)
system.cpu.statIssuedInstType_0::MemWrite       883388      1.10%     92.43% # Number of instructions issued per FU type, per thread (Count)
system.cpu.statIssuedInstType_0::FloatMemRead      5673599      7.06%     99.49% # Number of instructions issued per FU type, per thread (Count)
system.cpu.statIssuedInstType_0::FloatMemWrite       412074      0.51%    100.00% # Number of instructions issued per FU type, per thread (Count)
system.cpu.statIssuedInstType_0::IprAccess            0      0.00%    100.00% # Number of instructions issued per FU type, per thread (Count)
system.cpu.statIssuedInstType_0::InstPrefetch            0      0.00%    100.00% # Number of instructions issued per FU type, per thread (Count)
system.cpu.statIssuedInstType_0::SimdUnitStrideLoad            0      0.00%    100.00% # Number of instructions issued per FU type, per thread (Count)
system.cpu.statIssuedInstType_0::SimdUnitStrideStore            0      0.00%    100.00% # Number of instructions issued per FU type, per thread (Count)
system.cpu.statIssuedInstType_0::SimdUnitStrideMaskLoad            0      0.00%    100.00% # Number of instructions issued per FU type, per thread (Count)
system.cpu.statIssuedInstType_0::SimdUnitStrideMaskStore            0      0.00%    100.00% # Number of instructions issued per FU type, per thread (Count)
system.cpu.statIssuedInstType_0::SimdStridedLoad            0      0.00%    100.00% # Number of instructions issued per FU type, per thread (Count)
system.cpu.statIssuedInstType_0::SimdStridedStore            0      0.00%    100.00% # Number of instructions issued per FU type, per thread (Count)
system.cpu.statIssuedInstType_0::SimdIndexedLoad            0      0.00%    100.00% # Number of instructions issued per FU type, per thread (Count)
system.cpu.statIssuedInstType_0::SimdIndexedStore            0      0.00%    100.00% # Number of instructions issued per FU type, per thread (Count)
system.cpu.statIssuedInstType_0::SimdWholeRegisterLoad            0      0.00%    100.00% # Number of instructions issued per FU type, per thread (Count)
system.cpu.statIssuedInstType_0::SimdWholeRegisterStore            0      0.00%    100.00% # Number of instructions issued per FU type, per thread (Count)
system.cpu.statIssuedInstType_0::SimdUnitStrideFaultOnlyFirstLoad            0      0.00%    100.00% # Number of instructions issued per FU type, per thread (Count)
system.cpu.statIssuedInstType_0::SimdUnitStrideSegmentedLoad            0      0.00%    100.00% # Number of instructions issued per FU type, per thread (Count)
system.cpu.statIssuedInstType_0::SimdUnitStrideSegmentedStore            0      0.00%    100.00% # Number of instructions issued per FU type, per thread (Count)
system.cpu.statIssuedInstType_0::SimdExt            0      0.00%    100.00% # Number of instructions issued per FU type, per thread (Count)
system.cpu.statIssuedInstType_0::SimdFloatExt            0      0.00%    100.00% # Number of instructions issued per FU type, per thread (Count)
system.cpu.statIssuedInstType_0::SimdConfig            0      0.00%    100.00% # Number of instructions issued per FU type, per thread (Count)
system.cpu.statIssuedInstType_0::total       80356624                       # Number of instructions issued per FU type, per thread (Count)
system.cpu.issueRate                         2.669859                       # Inst issue rate ((Count/Cycle))
system.cpu.fuBusy                                   0                       # FU busy when requested (Count)
system.cpu.fuBusyRate                               0                       # FU busy rate (busy events/executed inst) ((Count/Count))
system.cpu.intInstQueueReads                146252059                       # Number of integer instruction queue reads (Count)
system.cpu.intInstQueueWrites                61193810                       # Number of integer instruction queue writes (Count)
system.cpu.intInstQueueWakeupAccesses        57311687                       # Number of integer instruction queue wakeup accesses (Count)
system.cpu.fpInstQueueReads                  44476772                       # Number of floating instruction queue reads (Count)
system.cpu.fpInstQueueWrites                 23783953                       # Number of floating instruction queue writes (Count)
system.cpu.fpInstQueueWakeupAccesses         22018269                       # Number of floating instruction queue wakeup accesses (Count)
system.cpu.vecInstQueueReads                        0                       # Number of vector instruction queue reads (Count)
system.cpu.vecInstQueueWrites                       0                       # Number of vector instruction queue writes (Count)
system.cpu.vecInstQueueWakeupAccesses               0                       # Number of vector instruction queue wakeup accesses (Count)
system.cpu.intAluAccesses                    56494610                       # Number of integer alu accesses (Count)
system.cpu.fpAluAccesses                     22234004                       # Number of floating point alu accesses (Count)
system.cpu.vecAluAccesses                           0                       # Number of vector alu accesses (Count)
system.cpu.numRecvResp                        8295276                       # Number of received responses (Count)
system.cpu.numRecvRespBytes                  48489800                       # Number of received response bytes (Byte)
system.cpu.recvRespAvgBW                         1.61                       # Average bandwidth of received responses ((Byte/Cycle))
system.cpu.recvRespAvgSize                       5.85                       # Average packet size per received response ((Byte/Count))
system.cpu.recvRespAvgRate                       0.28                       # Average rate of received responses per cycle ((Count/Cycle))
system.cpu.recvRespAvgRetryRate                  0.00                       # Average retry rate per received response ((Count/Count))
system.cpu.numSendRetryResp                         0                       # Number of retry responses sent (Count)
system.cpu.numSquashedInsts                    833799                       # Number of squashed instructions skipped in execute (Count)
system.cpu.numSwp                                   0                       # Number of swp insts executed (Count)
system.cpu.timesIdled                            1452                       # Number of times that the entire CPU went into an idle state and unscheduled itself (Count)
system.cpu.idleCycles                          124890                       # Total number of cycles that the CPU has spent unscheduled due to idling (Cycle)
system.cpu.MemDepUnit__0.insertedLoads        7183656                       # Number of loads inserted to the mem dependence unit. (Count)
system.cpu.MemDepUnit__0.insertedStores       1324101                       # Number of stores inserted to the mem dependence unit. (Count)
system.cpu.MemDepUnit__0.conflictingLoads        96704                       # Number of conflicting loads. (Count)
system.cpu.MemDepUnit__0.conflictingStores        84286                       # Number of conflicting stores. (Count)
system.cpu.MemDepUnit__1.insertedLoads              0                       # Number of loads inserted to the mem dependence unit. (Count)
system.cpu.MemDepUnit__1.insertedStores             0                       # Number of stores inserted to the mem dependence unit. (Count)
system.cpu.MemDepUnit__1.conflictingLoads            0                       # Number of conflicting loads. (Count)
system.cpu.MemDepUnit__1.conflictingStores            0                       # Number of conflicting stores. (Count)
system.cpu.MemDepUnit__2.insertedLoads              0                       # Number of loads inserted to the mem dependence unit. (Count)
system.cpu.MemDepUnit__2.insertedStores             0                       # Number of stores inserted to the mem dependence unit. (Count)
system.cpu.MemDepUnit__2.conflictingLoads            0                       # Number of conflicting loads. (Count)
system.cpu.MemDepUnit__2.conflictingStores            0                       # Number of conflicting stores. (Count)
system.cpu.MemDepUnit__3.insertedLoads              0                       # Number of loads inserted to the mem dependence unit. (Count)
system.cpu.MemDepUnit__3.insertedStores             0                       # Number of stores inserted to the mem dependence unit. (Count)
system.cpu.MemDepUnit__3.conflictingLoads            0                       # Number of conflicting loads. (Count)
system.cpu.MemDepUnit__3.conflictingStores            0                       # Number of conflicting stores. (Count)
system.cpu.branchPred.lookups_0::NoBranch          355      0.00%      0.00% # Number of BP lookups (Count)
system.cpu.branchPred.lookups_0::Return         71842      0.87%      0.88% # Number of BP lookups (Count)
system.cpu.branchPred.lookups_0::CallDirect        71224      0.87%      1.74% # Number of BP lookups (Count)
system.cpu.branchPred.lookups_0::CallIndirect         1071      0.01%      1.76% # Number of BP lookups (Count)
system.cpu.branchPred.lookups_0::DirectCond      7772474     94.50%     96.25% # Number of BP lookups (Count)
system.cpu.branchPred.lookups_0::DirectUncond       239754      2.91%     99.17% # Number of BP lookups (Count)
system.cpu.branchPred.lookups_0::IndirectCond            0      0.00%     99.17% # Number of BP lookups (Count)
system.cpu.branchPred.lookups_0::IndirectUncond        68431      0.83%    100.00% # Number of BP lookups (Count)
system.cpu.branchPred.lookups_0::total        8225151                       # Number of BP lookups (Count)
system.cpu.branchPred.squashes_0::NoBranch          314      0.05%      0.05% # Number of branches that got squashed (completely removed) as an earlier branch was mispredicted. (Count)
system.cpu.branchPred.squashes_0::Return         1173      0.20%      0.25% # Number of branches that got squashed (completely removed) as an earlier branch was mispredicted. (Count)
system.cpu.branchPred.squashes_0::CallDirect         1462      0.24%      0.49% # Number of branches that got squashed (completely removed) as an earlier branch was mispredicted. (Count)
system.cpu.branchPred.squashes_0::CallIndirect          159      0.03%      0.52% # Number of branches that got squashed (completely removed) as an earlier branch was mispredicted. (Count)
system.cpu.branchPred.squashes_0::DirectCond       591269     98.69%     99.21% # Number of branches that got squashed (completely removed) as an earlier branch was mispredicted. (Count)
system.cpu.branchPred.squashes_0::DirectUncond         3625      0.61%     99.82% # Number of branches that got squashed (completely removed) as an earlier branch was mispredicted. (Count)
system.cpu.branchPred.squashes_0::IndirectCond            0      0.00%     99.82% # Number of branches that got squashed (completely removed) as an earlier branch was mispredicted. (Count)
system.cpu.branchPred.squashes_0::IndirectUncond         1098      0.18%    100.00% # Number of branches that got squashed (completely removed) as an earlier branch was mispredicted. (Count)
system.cpu.branchPred.squashes_0::total        599100                       # Number of branches that got squashed (completely removed) as an earlier branch was mispredicted. (Count)
system.cpu.branchPred.corrected_0::NoBranch           54      0.02%      0.02% # Number of branches that got corrected but not yet commited. Branches get corrected by decode or after execute. Also a branch misprediction can be detected out-of-order. Therefore, a corrected branch might not end up beeing committed in case an even earlier branch was mispredicted (Count)
system.cpu.branchPred.corrected_0::Return            7      0.00%      0.02% # Number of branches that got corrected but not yet commited. Branches get corrected by decode or after execute. Also a branch misprediction can be detected out-of-order. Therefore, a corrected branch might not end up beeing committed in case an even earlier branch was mispredicted (Count)
system.cpu.branchPred.corrected_0::CallDirect          656      0.23%      0.25% # Number of branches that got corrected but not yet commited. Branches get corrected by decode or after execute. Also a branch misprediction can be detected out-of-order. Therefore, a corrected branch might not end up beeing committed in case an even earlier branch was mispredicted (Count)
system.cpu.branchPred.corrected_0::CallIndirect          207      0.07%      0.33% # Number of branches that got corrected but not yet commited. Branches get corrected by decode or after execute. Also a branch misprediction can be detected out-of-order. Therefore, a corrected branch might not end up beeing committed in case an even earlier branch was mispredicted (Count)
system.cpu.branchPred.corrected_0::DirectCond       280219     99.33%     99.66% # Number of branches that got corrected but not yet commited. Branches get corrected by decode or after execute. Also a branch misprediction can be detected out-of-order. Therefore, a corrected branch might not end up beeing committed in case an even earlier branch was mispredicted (Count)
system.cpu.branchPred.corrected_0::DirectUncond          515      0.18%     99.84% # Number of branches that got corrected but not yet commited. Branches get corrected by decode or after execute. Also a branch misprediction can be detected out-of-order. Therefore, a corrected branch might not end up beeing committed in case an even earlier branch was mispredicted (Count)
system.cpu.branchPred.corrected_0::IndirectCond            0      0.00%     99.84% # Number of branches that got corrected but not yet commited. Branches get corrected by decode or after execute. Also a branch misprediction can be detected out-of-order. Therefore, a corrected branch might not end up beeing committed in case an even earlier branch was mispredicted (Count)
system.cpu.branchPred.corrected_0::IndirectUncond          445      0.16%    100.00% # Number of branches that got corrected but not yet commited. Branches get corrected by decode or after execute. Also a branch misprediction can be detected out-of-order. Therefore, a corrected branch might not end up beeing committed in case an even earlier branch was mispredicted (Count)
system.cpu.branchPred.corrected_0::total       282103                       # Number of branches that got corrected but not yet commited. Branches get corrected by decode or after execute. Also a branch misprediction can be detected out-of-order. Therefore, a corrected branch might not end up beeing committed in case an even earlier branch was mispredicted (Count)
system.cpu.branchPred.earlyResteers_0::NoBranch            0                       # Number of branches that got redirected after decode. (Count)
system.cpu.branchPred.earlyResteers_0::Return            0                       # Number of branches that got redirected after decode. (Count)
system.cpu.branchPred.earlyResteers_0::CallDirect            0                       # Number of branches that got redirected after decode. (Count)
system.cpu.branchPred.earlyResteers_0::CallIndirect            0                       # Number of branches that got redirected after decode. (Count)
system.cpu.branchPred.earlyResteers_0::DirectCond            0                       # Number of branches that got redirected after decode. (Count)
system.cpu.branchPred.earlyResteers_0::DirectUncond            0                       # Number of branches that got redirected after decode. (Count)
system.cpu.branchPred.earlyResteers_0::IndirectCond            0                       # Number of branches that got redirected after decode. (Count)
system.cpu.branchPred.earlyResteers_0::IndirectUncond            0                       # Number of branches that got redirected after decode. (Count)
system.cpu.branchPred.earlyResteers_0::total            0                       # Number of branches that got redirected after decode. (Count)
system.cpu.branchPred.committed_0::NoBranch           41      0.00%      0.00% # Number of branches finally committed  (Count)
system.cpu.branchPred.committed_0::Return        70669      0.93%      0.93% # Number of branches finally committed  (Count)
system.cpu.branchPred.committed_0::CallDirect        69762      0.91%      1.84% # Number of branches finally committed  (Count)
system.cpu.branchPred.committed_0::CallIndirect          912      0.01%      1.85% # Number of branches finally committed  (Count)
system.cpu.branchPred.committed_0::DirectCond      7181204     94.17%     96.02% # Number of branches finally committed  (Count)
system.cpu.branchPred.committed_0::DirectUncond       236129      3.10%     99.12% # Number of branches finally committed  (Count)
system.cpu.branchPred.committed_0::IndirectCond            0      0.00%     99.12% # Number of branches finally committed  (Count)
system.cpu.branchPred.committed_0::IndirectUncond        67333      0.88%    100.00% # Number of branches finally committed  (Count)
system.cpu.branchPred.committed_0::total      7626050                       # Number of branches finally committed  (Count)
system.cpu.branchPred.mispredicted_0::NoBranch           41      0.01%      0.01% # Number of committed branches that were mispredicted. (Count)
system.cpu.branchPred.mispredicted_0::Return            1      0.00%      0.01% # Number of committed branches that were mispredicted. (Count)
system.cpu.branchPred.mispredicted_0::CallDirect          464      0.16%      0.18% # Number of committed branches that were mispredicted. (Count)
system.cpu.branchPred.mispredicted_0::CallIndirect          201      0.07%      0.25% # Number of committed branches that were mispredicted. (Count)
system.cpu.branchPred.mispredicted_0::DirectCond       279816     99.49%     99.74% # Number of committed branches that were mispredicted. (Count)
system.cpu.branchPred.mispredicted_0::DirectUncond          324      0.12%     99.86% # Number of committed branches that were mispredicted. (Count)
system.cpu.branchPred.mispredicted_0::IndirectCond            0      0.00%     99.86% # Number of committed branches that were mispredicted. (Count)
system.cpu.branchPred.mispredicted_0::IndirectUncond          399      0.14%    100.00% # Number of committed branches that were mispredicted. (Count)
system.cpu.branchPred.mispredicted_0::total       281246                       # Number of committed branches that were mispredicted. (Count)
system.cpu.branchPred.mispredictDueToPredictor_0::NoBranch           41      0.01%      0.01% # Number of committed branches that were mispredicted by the predictor. (Count)
system.cpu.branchPred.mispredictDueToPredictor_0::Return            0      0.00%      0.01% # Number of committed branches that were mispredicted by the predictor. (Count)
system.cpu.branchPred.mispredictDueToPredictor_0::CallDirect            1      0.00%      0.02% # Number of committed branches that were mispredicted by the predictor. (Count)
system.cpu.branchPred.mispredictDueToPredictor_0::CallIndirect            0      0.00%      0.02% # Number of committed branches that were mispredicted by the predictor. (Count)
system.cpu.branchPred.mispredictDueToPredictor_0::DirectCond       278670     99.98%    100.00% # Number of committed branches that were mispredicted by the predictor. (Count)
system.cpu.branchPred.mispredictDueToPredictor_0::DirectUncond            4      0.00%    100.00% # Number of committed branches that were mispredicted by the predictor. (Count)
system.cpu.branchPred.mispredictDueToPredictor_0::IndirectCond            0      0.00%    100.00% # Number of committed branches that were mispredicted by the predictor. (Count)
system.cpu.branchPred.mispredictDueToPredictor_0::IndirectUncond            0      0.00%    100.00% # Number of committed branches that were mispredicted by the predictor. (Count)
system.cpu.branchPred.mispredictDueToPredictor_0::total       278716                       # Number of committed branches that were mispredicted by the predictor. (Count)
system.cpu.branchPred.mispredictDueToBTBMiss_0::NoBranch            0      0.00%      0.00% # Number of committed branches that were mispredicted because of a BTB miss. (Count)
system.cpu.branchPred.mispredictDueToBTBMiss_0::Return            1      0.04%      0.04% # Number of committed branches that were mispredicted because of a BTB miss. (Count)
system.cpu.branchPred.mispredictDueToBTBMiss_0::CallDirect          463     18.30%     18.34% # Number of committed branches that were mispredicted because of a BTB miss. (Count)
system.cpu.branchPred.mispredictDueToBTBMiss_0::CallIndirect          201      7.94%     26.28% # Number of committed branches that were mispredicted because of a BTB miss. (Count)
system.cpu.branchPred.mispredictDueToBTBMiss_0::DirectCond         1146     45.30%     71.58% # Number of committed branches that were mispredicted because of a BTB miss. (Count)
system.cpu.branchPred.mispredictDueToBTBMiss_0::DirectUncond          320     12.65%     84.23% # Number of committed branches that were mispredicted because of a BTB miss. (Count)
system.cpu.branchPred.mispredictDueToBTBMiss_0::IndirectCond            0      0.00%     84.23% # Number of committed branches that were mispredicted because of a BTB miss. (Count)
system.cpu.branchPred.mispredictDueToBTBMiss_0::IndirectUncond          399     15.77%    100.00% # Number of committed branches that were mispredicted because of a BTB miss. (Count)
system.cpu.branchPred.mispredictDueToBTBMiss_0::total         2530                       # Number of committed branches that were mispredicted because of a BTB miss. (Count)
system.cpu.branchPred.targetProvider_0::NoTarget      3990799     48.52%     48.52% # The component providing the target for taken branches (Count)
system.cpu.branchPred.targetProvider_0::BTB      4094558     49.78%     98.30% # The component providing the target for taken branches (Count)
system.cpu.branchPred.targetProvider_0::RAS        71842      0.87%     99.17% # The component providing the target for taken branches (Count)
system.cpu.branchPred.targetProvider_0::Indirect        67952      0.83%    100.00% # The component providing the target for taken branches (Count)
system.cpu.branchPred.targetProvider_0::total      8225151                       # The component providing the target for taken branches (Count)
system.cpu.branchPred.targetWrong_0::NoBranch        54038     19.17%     19.17% # Number of branches where the target was incorrect or not available at prediction time. (Count)
system.cpu.branchPred.targetWrong_0::Return       227763     80.81%     99.99% # Number of branches where the target was incorrect or not available at prediction time. (Count)
system.cpu.branchPred.targetWrong_0::CallDirect            7      0.00%     99.99% # Number of branches where the target was incorrect or not available at prediction time. (Count)
system.cpu.branchPred.targetWrong_0::CallIndirect           34      0.01%    100.00% # Number of branches where the target was incorrect or not available at prediction time. (Count)
system.cpu.branchPred.targetWrong_0::DirectCond            0      0.00%    100.00% # Number of branches where the target was incorrect or not available at prediction time. (Count)
system.cpu.branchPred.targetWrong_0::DirectUncond            0      0.00%    100.00% # Number of branches where the target was incorrect or not available at prediction time. (Count)
system.cpu.branchPred.targetWrong_0::IndirectCond            0      0.00%    100.00% # Number of branches where the target was incorrect or not available at prediction time. (Count)
system.cpu.branchPred.targetWrong_0::IndirectUncond            0      0.00%    100.00% # Number of branches where the target was incorrect or not available at prediction time. (Count)
system.cpu.branchPred.targetWrong_0::total       281842                       # Number of branches where the target was incorrect or not available at prediction time. (Count)
system.cpu.branchPred.condPredicted           7772829                       # Number of conditional branches predicted (Count)
system.cpu.branchPred.condPredictedTaken      3786889                       # Number of conditional branches predicted as taken (Count)
system.cpu.branchPred.condIncorrect            282103                       # Number of conditional branches incorrect (Count)
system.cpu.branchPred.predTakenBTBMiss           1507                       # Number of branches predicted taken but missed in BTB (Count)
system.cpu.branchPred.BTBLookups              8225151                       # Number of BTB lookups (Count)
system.cpu.branchPred.BTBUpdates                53604                       # Number of BTB updates (Count)
system.cpu.branchPred.BTBHits                 6095604                       # Number of BTB hits (Count)
system.cpu.branchPred.BTBHitRatio            0.741093                       # BTB Hit Ratio (Ratio)
system.cpu.branchPred.BTBMispredicted            2410                       # Number BTB mispredictions. No target found or target wrong (Count)
system.cpu.branchPred.indirectLookups           69502                       # Number of indirect predictor lookups. (Count)
system.cpu.branchPred.indirectHits              67952                       # Number of indirect target hits. (Count)
system.cpu.branchPred.indirectMisses             1550                       # Number of indirect misses. (Count)
system.cpu.branchPred.indirectMispredicted            0                       # Number of mispredicted indirect branches. (Count)
system.cpu.branchPred.btb.lookups::NoBranch          355      0.00%      0.00% # Number of BTB lookups (Count)
system.cpu.branchPred.btb.lookups::Return        71842      0.87%      0.88% # Number of BTB lookups (Count)
system.cpu.branchPred.btb.lookups::CallDirect        71224      0.87%      1.74% # Number of BTB lookups (Count)
system.cpu.branchPred.btb.lookups::CallIndirect         1071      0.01%      1.76% # Number of BTB lookups (Count)
system.cpu.branchPred.btb.lookups::DirectCond      7772474     94.50%     96.25% # Number of BTB lookups (Count)
system.cpu.branchPred.btb.lookups::DirectUncond       239754      2.91%     99.17% # Number of BTB lookups (Count)
system.cpu.branchPred.btb.lookups::IndirectCond            0      0.00%     99.17% # Number of BTB lookups (Count)
system.cpu.branchPred.btb.lookups::IndirectUncond        68431      0.83%    100.00% # Number of BTB lookups (Count)
system.cpu.branchPred.btb.lookups::total      8225151                       # Number of BTB lookups (Count)
system.cpu.branchPred.btb.misses::NoBranch          117      0.01%      0.01% # Number of BTB misses (Count)
system.cpu.branchPred.btb.misses::Return        71833      3.37%      3.38% # Number of BTB misses (Count)
system.cpu.branchPred.btb.misses::CallDirect          786      0.04%      3.42% # Number of BTB misses (Count)
system.cpu.branchPred.btb.misses::CallIndirect         1071      0.05%      3.47% # Number of BTB misses (Count)
system.cpu.branchPred.btb.misses::DirectCond      1986665     93.29%     96.76% # Number of BTB misses (Count)
system.cpu.branchPred.btb.misses::DirectUncond          644      0.03%     96.79% # Number of BTB misses (Count)
system.cpu.branchPred.btb.misses::IndirectCond            0      0.00%     96.79% # Number of BTB misses (Count)
system.cpu.branchPred.btb.misses::IndirectUncond        68431      3.21%    100.00% # Number of BTB misses (Count)
system.cpu.branchPred.btb.misses::total       2129547                       # Number of BTB misses (Count)
system.cpu.branchPred.btb.updates::NoBranch            0      0.00%      0.00% # Number of BTB updates (Count)
system.cpu.branchPred.btb.updates::Return            0      0.00%      0.00% # Number of BTB updates (Count)
system.cpu.branchPred.btb.updates::CallDirect          656      1.22%      1.22% # Number of BTB updates (Count)
system.cpu.branchPred.btb.updates::CallIndirect            0      0.00%      1.22% # Number of BTB updates (Count)
system.cpu.branchPred.btb.updates::DirectCond        52433     97.82%     99.04% # Number of BTB updates (Count)
system.cpu.branchPred.btb.updates::DirectUncond          515      0.96%    100.00% # Number of BTB updates (Count)
system.cpu.branchPred.btb.updates::IndirectCond            0      0.00%    100.00% # Number of BTB updates (Count)
system.cpu.branchPred.btb.updates::IndirectUncond            0      0.00%    100.00% # Number of BTB updates (Count)
system.cpu.branchPred.btb.updates::total        53604                       # Number of BTB updates (Count)
system.cpu.branchPred.btb.mispredict::NoBranch            0      0.00%      0.00% # Number of BTB mispredictions. No target found or target wrong. (Count)
system.cpu.branchPred.btb.mispredict::Return            0      0.00%      0.00% # Number of BTB mispredictions. No target found or target wrong. (Count)
system.cpu.branchPred.btb.mispredict::CallDirect          656      1.22%      1.22% # Number of BTB mispredictions. No target found or target wrong. (Count)
system.cpu.branchPred.btb.mispredict::CallIndirect            0      0.00%      1.22% # Number of BTB mispredictions. No target found or target wrong. (Count)
system.cpu.branchPred.btb.mispredict::DirectCond        52433     97.82%     99.04% # Number of BTB mispredictions. No target found or target wrong. (Count)
system.cpu.branchPred.btb.mispredict::DirectUncond          515      0.96%    100.00% # Number of BTB mispredictions. No target found or target wrong. (Count)
system.cpu.branchPred.btb.mispredict::IndirectCond            0      0.00%    100.00% # Number of BTB mispredictions. No target found or target wrong. (Count)
system.cpu.branchPred.btb.mispredict::IndirectUncond            0      0.00%    100.00% # Number of BTB mispredictions. No target found or target wrong. (Count)
system.cpu.branchPred.btb.mispredict::total        53604                       # Number of BTB mispredictions. No target found or target wrong. (Count)
system.cpu.branchPred.btb.power_state.pwrStateResidencyTicks::UNDEFINED  15048849000                       # Cumulative time (in ticks) in various power states (Tick)
system.cpu.branchPred.indirectBranchPred.lookups        69502                       # Number of lookups (Count)
system.cpu.branchPred.indirectBranchPred.hits        67952                       # Number of hits of a tag (Count)
system.cpu.branchPred.indirectBranchPred.misses         1550                       # Number of misses (Count)
system.cpu.branchPred.indirectBranchPred.targetRecords          652                       # Number of targets that where recorded/installed in the cache (Count)
system.cpu.branchPred.indirectBranchPred.indirectRecords        70154                       # Number of indirect branches/calls recorded in the indirect hist (Count)
system.cpu.branchPred.indirectBranchPred.speculativeOverflows            4                       # Number of times more than the allowed capacity for speculative branches/calls where in flight and destroy the path history (Count)
system.cpu.branchPred.ras.pushes                73468                       # Number of times a PC was pushed onto the RAS (Count)
system.cpu.branchPred.ras.pops                  73463                       # Number of times a PC was poped from the RAS (Count)
system.cpu.branchPred.ras.squashes               2794                       # Number of times the stack operation was squashed due to wrong speculation. (Count)
system.cpu.branchPred.ras.used                  70669                       # Number of times the RAS is the provider (Count)
system.cpu.branchPred.ras.correct               70668                       # Number of times the RAS is the provider and the prediction is correct (Count)
system.cpu.branchPred.ras.incorrect                 1                       # Number of times the RAS is the provider and the prediction is wrong (Count)
system.cpu.commit.commitSquashedInsts         3724568                       # The number of squashed insts skipped by commit (Count)
system.cpu.commit.commitNonSpecStalls             900                       # The number of times commit has been forced to stall to communicate backwards (Count)
system.cpu.commit.branchMispredicts            281200                       # The number of times a branch was mispredicted (Count)
system.cpu.commit.numCommittedDist::samples     29404972                       # Number of insts commited each cycle (Count)
system.cpu.commit.numCommittedDist::mean     2.636083                       # Number of insts commited each cycle (Count)
system.cpu.commit.numCommittedDist::stdev     1.556682                       # Number of insts commited each cycle (Count)
system.cpu.commit.numCommittedDist::underflows            0      0.00%      0.00% # Number of insts commited each cycle (Count)
system.cpu.commit.numCommittedDist::0         3732116     12.69%     12.69% # Number of insts commited each cycle (Count)
system.cpu.commit.numCommittedDist::1         6447842     21.93%     34.62% # Number of insts commited each cycle (Count)
system.cpu.commit.numCommittedDist::2         1189339      4.04%     38.66% # Number of insts commited each cycle (Count)
system.cpu.commit.numCommittedDist::3         3455277     11.75%     50.42% # Number of insts commited each cycle (Count)
system.cpu.commit.numCommittedDist::4        14580398     49.58%    100.00% # Number of insts commited each cycle (Count)
system.cpu.commit.numCommittedDist::overflows            0      0.00%    100.00% # Number of insts commited each cycle (Count)
system.cpu.commit.numCommittedDist::min_value            0                       # Number of insts commited each cycle (Count)
system.cpu.commit.numCommittedDist::max_value            4                       # Number of insts commited each cycle (Count)
system.cpu.commit.numCommittedDist::total     29404972                       # Number of insts commited each cycle (Count)
system.cpu.commit.amos                              0                       # Number of atomic instructions committed (Count)
system.cpu.commit.membars                         468                       # Number of memory barriers committed (Count)
system.cpu.commit.functionCalls                 70674                       # Number of function calls committed. (Count)
system.cpu.commit.committedInstType_0::No_OpClass      1618560      2.09%      2.09% # Class of committed instruction (Count)
system.cpu.commit.committedInstType_0::IntAlu     51914509     66.97%     69.06% # Class of committed instruction (Count)
system.cpu.commit.committedInstType_0::IntMult       100329      0.13%     69.19% # Class of committed instruction (Count)
system.cpu.commit.committedInstType_0::IntDiv       230750      0.30%     69.49% # Class of committed instruction (Count)
system.cpu.commit.committedInstType_0::FloatAdd      5548698      7.16%     76.65% # Class of committed instruction (Count)
system.cpu.commit.committedInstType_0::FloatCmp            0      0.00%     76.65% # Class of committed instruction (Count)
system.cpu.commit.committedInstType_0::FloatCvt          352      0.00%     76.65% # Class of committed instruction (Count)
system.cpu.commit.committedInstType_0::FloatMult            0      0.00%     76.65% # Class of committed instruction (Count)
system.cpu.commit.committedInstType_0::FloatMultAcc            0      0.00%     76.65% # Class of committed instruction (Count)
system.cpu.commit.committedInstType_0::FloatDiv            0      0.00%     76.65% # Class of committed instruction (Count)
system.cpu.commit.committedInstType_0::FloatMisc            0      0.00%     76.65% # Class of committed instruction (Count)
system.cpu.commit.committedInstType_0::FloatSqrt            0      0.00%     76.65% # Class of committed instruction (Count)
system.cpu.commit.committedInstType_0::SimdAdd          674      0.00%     76.65% # Class of committed instruction (Count)
system.cpu.commit.committedInstType_0::SimdAddAcc            0      0.00%     76.65% # Class of committed instruction (Count)
system.cpu.commit.committedInstType_0::SimdAlu      1156002      1.49%     78.14% # Class of committed instruction (Count)
system.cpu.commit.committedInstType_0::SimdCmp            0      0.00%     78.14% # Class of committed instruction (Count)
system.cpu.commit.committedInstType_0::SimdCvt         1786      0.00%     78.14% # Class of committed instruction (Count)
system.cpu.commit.committedInstType_0::SimdMisc       138813      0.18%     78.32% # Class of committed instruction (Count)
system.cpu.commit.committedInstType_0::SimdMult            0      0.00%     78.32% # Class of committed instruction (Count)
system.cpu.commit.committedInstType_0::SimdMultAcc            0      0.00%     78.32% # Class of committed instruction (Count)
system.cpu.commit.committedInstType_0::SimdMatMultAcc            0      0.00%     78.32% # Class of committed instruction (Count)
system.cpu.commit.committedInstType_0::SimdShift          401      0.00%     78.32% # Class of committed instruction (Count)
system.cpu.commit.committedInstType_0::SimdShiftAcc            0      0.00%     78.32% # Class of committed instruction (Count)
system.cpu.commit.committedInstType_0::SimdDiv            0      0.00%     78.32% # Class of committed instruction (Count)
system.cpu.commit.committedInstType_0::SimdSqrt            0      0.00%     78.32% # Class of committed instruction (Count)
system.cpu.commit.committedInstType_0::SimdFloatAdd      2686469      3.47%     81.79% # Class of committed instruction (Count)
system.cpu.commit.committedInstType_0::SimdFloatAlu            0      0.00%     81.79% # Class of committed instruction (Count)
system.cpu.commit.committedInstType_0::SimdFloatCmp        65536      0.08%     81.87% # Class of committed instruction (Count)
system.cpu.commit.committedInstType_0::SimdFloatCvt      3178586      4.10%     85.97% # Class of committed instruction (Count)
system.cpu.commit.committedInstType_0::SimdFloatDiv        65538      0.08%     86.06% # Class of committed instruction (Count)
system.cpu.commit.committedInstType_0::SimdFloatMisc            0      0.00%     86.06% # Class of committed instruction (Count)
system.cpu.commit.committedInstType_0::SimdFloatMult      2676742      3.45%     89.51% # Class of committed instruction (Count)
system.cpu.commit.committedInstType_0::SimdFloatMultAcc            0      0.00%     89.51% # Class of committed instruction (Count)
system.cpu.commit.committedInstType_0::SimdFloatMatMultAcc            0      0.00%     89.51% # Class of committed instruction (Count)
system.cpu.commit.committedInstType_0::SimdFloatSqrt            0      0.00%     89.51% # Class of committed instruction (Count)
system.cpu.commit.committedInstType_0::SimdReduceAdd            0      0.00%     89.51% # Class of committed instruction (Count)
system.cpu.commit.committedInstType_0::SimdReduceAlu            0      0.00%     89.51% # Class of committed instruction (Count)
system.cpu.commit.committedInstType_0::SimdReduceCmp            0      0.00%     89.51% # Class of committed instruction (Count)
system.cpu.commit.committedInstType_0::SimdFloatReduceAdd            0      0.00%     89.51% # Class of committed instruction (Count)
system.cpu.commit.committedInstType_0::SimdFloatReduceCmp            0      0.00%     89.51% # Class of committed instruction (Count)
system.cpu.commit.committedInstType_0::SimdAes            0      0.00%     89.51% # Class of committed instruction (Count)
system.cpu.commit.committedInstType_0::SimdAesMix            0      0.00%     89.51% # Class of committed instruction (Count)
system.cpu.commit.committedInstType_0::SimdSha1Hash            0      0.00%     89.51% # Class of committed instruction (Count)
system.cpu.commit.committedInstType_0::SimdSha1Hash2            0      0.00%     89.51% # Class of committed instruction (Count)
system.cpu.commit.committedInstType_0::SimdSha256Hash            0      0.00%     89.51% # Class of committed instruction (Count)
system.cpu.commit.committedInstType_0::SimdSha256Hash2            0      0.00%     89.51% # Class of committed instruction (Count)
system.cpu.commit.committedInstType_0::SimdShaSigma2            0      0.00%     89.51% # Class of committed instruction (Count)
system.cpu.commit.committedInstType_0::SimdShaSigma3            0      0.00%     89.51% # Class of committed instruction (Count)
system.cpu.commit.committedInstType_0::SimdPredAlu            0      0.00%     89.51% # Class of committed instruction (Count)
system.cpu.commit.committedInstType_0::Matrix            0      0.00%     89.51% # Class of committed instruction (Count)
system.cpu.commit.committedInstType_0::MatrixMov            0      0.00%     89.51% # Class of committed instruction (Count)
system.cpu.commit.committedInstType_0::MatrixOP            0      0.00%     89.51% # Class of committed instruction (Count)
system.cpu.commit.committedInstType_0::MemRead      1430049      1.84%     91.36% # Class of committed instruction (Count)
system.cpu.commit.committedInstType_0::MemWrite       824760      1.06%     92.42% # Class of committed instruction (Count)
system.cpu.commit.committedInstType_0::FloatMemRead      5464214      7.05%     99.47% # Class of committed instruction (Count)
system.cpu.commit.committedInstType_0::FloatMemWrite       411175      0.53%    100.00% # Class of committed instruction (Count)
system.cpu.commit.committedInstType_0::IprAccess            0      0.00%    100.00% # Class of committed instruction (Count)
system.cpu.commit.committedInstType_0::InstPrefetch            0      0.00%    100.00% # Class of committed instruction (Count)
system.cpu.commit.committedInstType_0::SimdUnitStrideLoad            0      0.00%    100.00% # Class of committed instruction (Count)
system.cpu.commit.committedInstType_0::SimdUnitStrideStore            0      0.00%    100.00% # Class of committed instruction (Count)
system.cpu.commit.committedInstType_0::SimdUnitStrideMaskLoad            0      0.00%    100.00% # Class of committed instruction (Count)
system.cpu.commit.committedInstType_0::SimdUnitStrideMaskStore            0      0.00%    100.00% # Class of committed instruction (Count)
system.cpu.commit.committedInstType_0::SimdStridedLoad            0      0.00%    100.00% # Class of committed instruction (Count)
system.cpu.commit.committedInstType_0::SimdStridedStore            0      0.00%    100.00% # Class of committed instruction (Count)
system.cpu.commit.committedInstType_0::SimdIndexedLoad            0      0.00%    100.00% # Class of committed instruction (Count)
system.cpu.commit.committedInstType_0::SimdIndexedStore            0      0.00%    100.00% # Class of committed instruction (Count)
system.cpu.commit.committedInstType_0::SimdWholeRegisterLoad            0      0.00%    100.00% # Class of committed instruction (Count)
system.cpu.commit.committedInstType_0::SimdWholeRegisterStore            0      0.00%    100.00% # Class of committed instruction (Count)
system.cpu.commit.committedInstType_0::SimdUnitStrideFaultOnlyFirstLoad            0      0.00%    100.00% # Class of committed instruction (Count)
system.cpu.commit.committedInstType_0::SimdUnitStrideSegmentedLoad            0      0.00%    100.00% # Class of committed instruction (Count)
system.cpu.commit.committedInstType_0::SimdUnitStrideSegmentedStore            0      0.00%    100.00% # Class of committed instruction (Count)
system.cpu.commit.committedInstType_0::SimdExt            0      0.00%    100.00% # Class of committed instruction (Count)
system.cpu.commit.committedInstType_0::SimdFloatExt            0      0.00%    100.00% # Class of committed instruction (Count)
system.cpu.commit.committedInstType_0::SimdConfig            0      0.00%    100.00% # Class of committed instruction (Count)
system.cpu.commit.committedInstType_0::total     77513943                       # Class of committed instruction (Count)
system.cpu.commit.commitEligibleSamples      14580398                       # number cycles where commit BW limit reached (Cycle)
system.cpu.commitStats0.numInsts             47165717                       # Number of instructions committed (thread level) (Count)
system.cpu.commitStats0.numOps               77513943                       # Number of ops (including micro ops) committed (thread level) (Count)
system.cpu.commitStats0.numInstsNotNOP       47165717                       # Number of instructions committed excluding NOPs or prefetches (Count)
system.cpu.commitStats0.numOpsNotNOP         77513943                       # Number of Ops (including micro ops) Simulated (Count)
system.cpu.commitStats0.cpi                  0.638127                       # CPI: cycles per instruction (thread level) ((Cycle/Count))
system.cpu.commitStats0.ipc                  1.567087                       # IPC: instructions per cycle (thread level) ((Count/Cycle))
system.cpu.commitStats0.numMemRefs            8130198                       # Number of memory references committed (Count)
system.cpu.commitStats0.numFpInsts           21528383                       # Number of float instructions (Count)
system.cpu.commitStats0.numIntInsts          60341160                       # Number of integer instructions (Count)
system.cpu.commitStats0.numLoadInsts          6894263                       # Number of load instructions (Count)
system.cpu.commitStats0.numStoreInsts         1235935                       # Number of store instructions (Count)
system.cpu.commitStats0.numVecInsts                 0                       # Number of vector instructions (Count)
system.cpu.commitStats0.committedInstType::No_OpClass      1618560      2.09%      2.09% # Class of committed instruction. (Count)
system.cpu.commitStats0.committedInstType::IntAlu     51914509     66.97%     69.06% # Class of committed instruction. (Count)
system.cpu.commitStats0.committedInstType::IntMult       100329      0.13%     69.19% # Class of committed instruction. (Count)
system.cpu.commitStats0.committedInstType::IntDiv       230750      0.30%     69.49% # Class of committed instruction. (Count)
system.cpu.commitStats0.committedInstType::FloatAdd      5548698      7.16%     76.65% # Class of committed instruction. (Count)
system.cpu.commitStats0.committedInstType::FloatCmp            0      0.00%     76.65% # Class of committed instruction. (Count)
system.cpu.commitStats0.committedInstType::FloatCvt          352      0.00%     76.65% # Class of committed instruction. (Count)
system.cpu.commitStats0.committedInstType::FloatMult            0      0.00%     76.65% # Class of committed instruction. (Count)
system.cpu.commitStats0.committedInstType::FloatMultAcc            0      0.00%     76.65% # Class of committed instruction. (Count)
system.cpu.commitStats0.committedInstType::FloatDiv            0      0.00%     76.65% # Class of committed instruction. (Count)
system.cpu.commitStats0.committedInstType::FloatMisc            0      0.00%     76.65% # Class of committed instruction. (Count)
system.cpu.commitStats0.committedInstType::FloatSqrt            0      0.00%     76.65% # Class of committed instruction. (Count)
system.cpu.commitStats0.committedInstType::SimdAdd          674      0.00%     76.65% # Class of committed instruction. (Count)
system.cpu.commitStats0.committedInstType::SimdAddAcc            0      0.00%     76.65% # Class of committed instruction. (Count)
system.cpu.commitStats0.committedInstType::SimdAlu      1156002      1.49%     78.14% # Class of committed instruction. (Count)
system.cpu.commitStats0.committedInstType::SimdCmp            0      0.00%     78.14% # Class of committed instruction. (Count)
system.cpu.commitStats0.committedInstType::SimdCvt         1786      0.00%     78.14% # Class of committed instruction. (Count)
system.cpu.commitStats0.committedInstType::SimdMisc       138813      0.18%     78.32% # Class of committed instruction. (Count)
system.cpu.commitStats0.committedInstType::SimdMult            0      0.00%     78.32% # Class of committed instruction. (Count)
system.cpu.commitStats0.committedInstType::SimdMultAcc            0      0.00%     78.32% # Class of committed instruction. (Count)
system.cpu.commitStats0.committedInstType::SimdMatMultAcc            0      0.00%     78.32% # Class of committed instruction. (Count)
system.cpu.commitStats0.committedInstType::SimdShift          401      0.00%     78.32% # Class of committed instruction. (Count)
system.cpu.commitStats0.committedInstType::SimdShiftAcc            0      0.00%     78.32% # Class of committed instruction. (Count)
system.cpu.commitStats0.committedInstType::SimdDiv            0      0.00%     78.32% # Class of committed instruction. (Count)
system.cpu.commitStats0.committedInstType::SimdSqrt            0      0.00%     78.32% # Class of committed instruction. (Count)
system.cpu.commitStats0.committedInstType::SimdFloatAdd      2686469      3.47%     81.79% # Class of committed instruction. (Count)
system.cpu.commitStats0.committedInstType::SimdFloatAlu            0      0.00%     81.79% # Class of committed instruction. (Count)
system.cpu.commitStats0.committedInstType::SimdFloatCmp        65536      0.08%     81.87% # Class of committed instruction. (Count)
system.cpu.commitStats0.committedInstType::SimdFloatCvt      3178586      4.10%     85.97% # Class of committed instruction. (Count)
system.cpu.commitStats0.committedInstType::SimdFloatDiv        65538      0.08%     86.06% # Class of committed instruction. (Count)
system.cpu.commitStats0.committedInstType::SimdFloatMisc            0      0.00%     86.06% # Class of committed instruction. (Count)
system.cpu.commitStats0.committedInstType::SimdFloatMult      2676742      3.45%     89.51% # Class of committed instruction. (Count)
system.cpu.commitStats0.committedInstType::SimdFloatMultAcc            0      0.00%     89.51% # Class of committed instruction. (Count)
system.cpu.commitStats0.committedInstType::SimdFloatMatMultAcc            0      0.00%     89.51% # Class of committed instruction. (Count)
system.cpu.commitStats0.committedInstType::SimdFloatSqrt            0      0.00%     89.51% # Class of committed instruction. (Count)
system.cpu.commitStats0.committedInstType::SimdReduceAdd            0      0.00%     89.51% # Class of committed instruction. (Count)
system.cpu.commitStats0.committedInstType::SimdReduceAlu            0      0.00%     89.51% # Class of committed instruction. (Count)
system.cpu.commitStats0.committedInstType::SimdReduceCmp            0      0.00%     89.51% # Class of committed instruction. (Count)
system.cpu.commitStats0.committedInstType::SimdFloatReduceAdd            0      0.00%     89.51% # Class of committed instruction. (Count)
system.cpu.commitStats0.committedInstType::SimdFloatReduceCmp            0      0.00%     89.51% # Class of committed instruction. (Count)
system.cpu.commitStats0.committedInstType::SimdAes            0      0.00%     89.51% # Class of committed instruction. (Count)
system.cpu.commitStats0.committedInstType::SimdAesMix            0      0.00%     89.51% # Class of committed instruction. (Count)
system.cpu.commitStats0.committedInstType::SimdSha1Hash            0      0.00%     89.51% # Class of committed instruction. (Count)
system.cpu.commitStats0.committedInstType::SimdSha1Hash2            0      0.00%     89.51% # Class of committed instruction. (Count)
system.cpu.commitStats0.committedInstType::SimdSha256Hash            0      0.00%     89.51% # Class of committed instruction. (Count)
system.cpu.commitStats0.committedInstType::SimdSha256Hash2            0      0.00%     89.51% # Class of committed instruction. (Count)
system.cpu.commitStats0.committedInstType::SimdShaSigma2            0      0.00%     89.51% # Class of committed instruction. (Count)
system.cpu.commitStats0.committedInstType::SimdShaSigma3            0      0.00%     89.51% # Class of committed instruction. (Count)
system.cpu.commitStats0.committedInstType::SimdPredAlu            0      0.00%     89.51% # Class of committed instruction. (Count)
system.cpu.commitStats0.committedInstType::Matrix            0      0.00%     89.51% # Class of committed instruction. (Count)
system.cpu.commitStats0.committedInstType::MatrixMov            0      0.00%     89.51% # Class of committed instruction. (Count)
system.cpu.commitStats0.committedInstType::MatrixOP            0      0.00%     89.51% # Class of committed instruction. (Count)
system.cpu.commitStats0.committedInstType::MemRead      1430049      1.84%     91.36% # Class of committed instruction. (Count)
system.cpu.commitStats0.committedInstType::MemWrite       824760      1.06%     92.42% # Class of committed instruction. (Count)
system.cpu.commitStats0.committedInstType::FloatMemRead      5464214      7.05%     99.47% # Class of committed instruction. (Count)
system.cpu.commitStats0.committedInstType::FloatMemWrite       411175      0.53%    100.00% # Class of committed instruction. (Count)
system.cpu.commitStats0.committedInstType::IprAccess            0      0.00%    100.00% # Class of committed instruction. (Count)
system.cpu.commitStats0.committedInstType::InstPrefetch            0      0.00%    100.00% # Class of committed instruction. (Count)
system.cpu.commitStats0.committedInstType::SimdUnitStrideLoad            0      0.00%    100.00% # Class of committed instruction. (Count)
system.cpu.commitStats0.committedInstType::SimdUnitStrideStore            0      0.00%    100.00% # Class of committed instruction. (Count)
system.cpu.commitStats0.committedInstType::SimdUnitStrideMaskLoad            0      0.00%    100.00% # Class of committed instruction. (Count)
system.cpu.commitStats0.committedInstType::SimdUnitStrideMaskStore            0      0.00%    100.00% # Class of committed instruction. (Count)
system.cpu.commitStats0.committedInstType::SimdStridedLoad            0      0.00%    100.00% # Class of committed instruction. (Count)
system.cpu.commitStats0.committedInstType::SimdStridedStore            0      0.00%    100.00% # Class of committed instruction. (Count)
system.cpu.commitStats0.committedInstType::SimdIndexedLoad            0      0.00%    100.00% # Class of committed instruction. (Count)
system.cpu.commitStats0.committedInstType::SimdIndexedStore            0      0.00%    100.00% # Class of committed instruction. (Count)
system.cpu.commitStats0.committedInstType::SimdWholeRegisterLoad            0      0.00%    100.00% # Class of committed instruction. (Count)
system.cpu.commitStats0.committedInstType::SimdWholeRegisterStore            0      0.00%    100.00% # Class of committed instruction. (Count)
system.cpu.commitStats0.committedInstType::SimdUnitStrideFaultOnlyFirstLoad            0      0.00%    100.00% # Class of committed instruction. (Count)
system.cpu.commitStats0.committedInstType::SimdUnitStrideSegmentedLoad            0      0.00%    100.00% # Class of committed instruction. (Count)
system.cpu.commitStats0.committedInstType::SimdUnitStrideSegmentedStore            0      0.00%    100.00% # Class of committed instruction. (Count)
system.cpu.commitStats0.committedInstType::SimdExt            0      0.00%    100.00% # Class of committed instruction. (Count)
system.cpu.commitStats0.committedInstType::SimdFloatExt            0      0.00%    100.00% # Class of committed instruction. (Count)
system.cpu.commitStats0.committedInstType::SimdConfig            0      0.00%    100.00% # Class of committed instruction. (Count)
system.cpu.commitStats0.committedInstType::total     77513943                       # Class of committed instruction. (Count)
system.cpu.commitStats0.committedControl::IsControl      7626050                       # Class of control type instructions committed (Count)
system.cpu.commitStats0.committedControl::IsDirectControl      7487095                       # Class of control type instructions committed (Count)
system.cpu.commitStats0.committedControl::IsIndirectControl       138914                       # Class of control type instructions committed (Count)
system.cpu.commitStats0.committedControl::IsCondControl      7181204                       # Class of control type instructions committed (Count)
system.cpu.commitStats0.committedControl::IsUncondControl       444805                       # Class of control type instructions committed (Count)
system.cpu.commitStats0.committedControl::IsCall        70674                       # Class of control type instructions committed (Count)
system.cpu.commitStats0.committedControl::IsReturn        70669                       # Class of control type instructions committed (Count)
system.cpu.dcache.demandHits::cpu.data        8072875                       # number of demand (read+write) hits (Count)
system.cpu.dcache.demandHits::total           8072875                       # number of demand (read+write) hits (Count)
system.cpu.dcache.overallHits::cpu.data       8072875                       # number of overall hits (Count)
system.cpu.dcache.overallHits::total          8072875                       # number of overall hits (Count)
system.cpu.dcache.demandMisses::cpu.data       221933                       # number of demand (read+write) misses (Count)
system.cpu.dcache.demandMisses::total          221933                       # number of demand (read+write) misses (Count)
system.cpu.dcache.overallMisses::cpu.data       221933                       # number of overall misses (Count)
system.cpu.dcache.overallMisses::total         221933                       # number of overall misses (Count)
system.cpu.dcache.demandMissLatency::cpu.data   2132417499                       # number of demand (read+write) miss ticks (Tick)
system.cpu.dcache.demandMissLatency::total   2132417499                       # number of demand (read+write) miss ticks (Tick)
system.cpu.dcache.overallMissLatency::cpu.data   2132417499                       # number of overall miss ticks (Tick)
system.cpu.dcache.overallMissLatency::total   2132417499                       # number of overall miss ticks (Tick)
[...]
system.mem_ctrl.dram.numReads::cpu.inst          1976                       # Number of read requests responded to by this memory (Count)
system.mem_ctrl.dram.numReads::cpu.data         14881                       # Number of read requests responded to by this memory (Count)
system.mem_ctrl.dram.numReads::total            16857                       # Number of read requests responded to by this memory (Count)
system.mem_ctrl.dram.numWrites::writebacks          454                       # Number of write requests responded to by this memory (Count)
system.mem_ctrl.dram.numWrites::total             454                       # Number of write requests responded to by this memory (Count)
system.mem_ctrl.dram.bwRead::cpu.inst         8403566                       # Total read bandwidth from this memory ((Byte/Second))
system.mem_ctrl.dram.bwRead::cpu.data        63286169                       # Total read bandwidth from this memory ((Byte/Second))
system.mem_ctrl.dram.bwRead::total           71689735                       # Total read bandwidth from this memory ((Byte/Second))
system.mem_ctrl.dram.bwInstRead::cpu.inst      8403566                       # Instruction read bandwidth from this memory ((Byte/Second))
system.mem_ctrl.dram.bwInstRead::total        8403566                       # Instruction read bandwidth from this memory ((Byte/Second))
system.mem_ctrl.dram.bwWrite::writebacks      1930779                       # Write bandwidth from this memory ((Byte/Second))
system.mem_ctrl.dram.bwWrite::total           1930779                       # Write bandwidth from this memory ((Byte/Second))
system.mem_ctrl.dram.bwTotal::writebacks      1930779                       # Total bandwidth to/from this memory ((Byte/Second))
system.mem_ctrl.dram.bwTotal::cpu.inst        8403566                       # Total bandwidth to/from this memory ((Byte/Second))
system.mem_ctrl.dram.bwTotal::cpu.data       63286169                       # Total bandwidth to/from this memory ((Byte/Second))
system.mem_ctrl.dram.bwTotal::total          73620514                       # Total bandwidth to/from this memory ((Byte/Second))
system.mem_ctrl.dram.readBursts                 16857                       # Number of DRAM read bursts (Count)
system.mem_ctrl.dram.writeBursts                  427                       # Number of DRAM write bursts (Count)
system.mem_ctrl.dram.perBankRdBursts::0          1204                       # Per bank write bursts (Count)
system.mem_ctrl.dram.perBankRdBursts::1          1271                       # Per bank write bursts (Count)
system.mem_ctrl.dram.perBankRdBursts::2          1063                       # Per bank write bursts (Count)
system.mem_ctrl.dram.perBankRdBursts::3          1016                       # Per bank write bursts (Count)
system.mem_ctrl.dram.perBankRdBursts::4           982                       # Per bank write bursts (Count)
system.mem_ctrl.dram.perBankRdBursts::5          1024                       # Per bank write bursts (Count)
system.mem_ctrl.dram.perBankRdBursts::6          1097                       # Per bank write bursts (Count)
system.mem_ctrl.dram.perBankRdBursts::7          1015                       # Per bank write bursts (Count)
system.mem_ctrl.dram.perBankRdBursts::8           980                       # Per bank write bursts (Count)
system.mem_ctrl.dram.perBankRdBursts::9          1061                       # Per bank write bursts (Count)
system.mem_ctrl.dram.perBankRdBursts::10         1093                       # Per bank write bursts (Count)
system.mem_ctrl.dram.perBankRdBursts::11          882                       # Per bank write bursts (Count)
system.mem_ctrl.dram.perBankRdBursts::12          993                       # Per bank write bursts (Count)
system.mem_ctrl.dram.perBankRdBursts::13          952                       # Per bank write bursts (Count)
system.mem_ctrl.dram.perBankRdBursts::14         1129                       # Per bank write bursts (Count)
system.mem_ctrl.dram.perBankRdBursts::15         1095                       # Per bank write bursts (Count)
system.mem_ctrl.dram.perBankWrBursts::0            55                       # Per bank write bursts (Count)
system.mem_ctrl.dram.perBankWrBursts::1           170                       # Per bank write bursts (Count)
system.mem_ctrl.dram.perBankWrBursts::2            58                       # Per bank write bursts (Count)
system.mem_ctrl.dram.perBankWrBursts::3             1                       # Per bank write bursts (Count)
system.mem_ctrl.dram.perBankWrBursts::4             0                       # Per bank write bursts (Count)
system.mem_ctrl.dram.perBankWrBursts::5             2                       # Per bank write bursts (Count)
system.mem_ctrl.dram.perBankWrBursts::6            10                       # Per bank write bursts (Count)
system.mem_ctrl.dram.perBankWrBursts::7            28                       # Per bank write bursts (Count)
system.mem_ctrl.dram.perBankWrBursts::8             1                       # Per bank write bursts (Count)
system.mem_ctrl.dram.perBankWrBursts::9             4                       # Per bank write bursts (Count)
system.mem_ctrl.dram.perBankWrBursts::10           31                       # Per bank write bursts (Count)
system.mem_ctrl.dram.perBankWrBursts::11            0                       # Per bank write bursts (Count)
system.mem_ctrl.dram.perBankWrBursts::12            1                       # Per bank write bursts (Count)
system.mem_ctrl.dram.perBankWrBursts::13            0                       # Per bank write bursts (Count)
system.mem_ctrl.dram.perBankWrBursts::14           21                       # Per bank write bursts (Count)
system.mem_ctrl.dram.perBankWrBursts::15           45                       # Per bank write bursts (Count)
system.mem_ctrl.dram.totQLat                 91109500                       # Total ticks spent queuing (Tick)
system.mem_ctrl.dram.totBusLat               84285000                       # Total ticks spent in databus transfers (Tick)
system.mem_ctrl.dram.totMemAccLat           407178250                       # Total ticks spent from burst creation until serviced by the DRAM (Tick)
system.mem_ctrl.dram.avgQLat                  5404.85                       # Average queueing delay per DRAM burst ((Tick/Count))
system.mem_ctrl.dram.avgBusLat                5000.00                       # Average bus latency per DRAM burst ((Tick/Count))
system.mem_ctrl.dram.avgMemAccLat            24154.85                       # Average memory access latency per DRAM burst ((Tick/Count))
system.mem_ctrl.dram.readRowHits                14846                       # Number of row buffer hits during reads (Count)
system.mem_ctrl.dram.writeRowHits                 342                       # Number of row buffer hits during writes (Count)
system.mem_ctrl.dram.readRowHitRate             88.07                       # Row buffer hit rate for reads (Ratio)
system.mem_ctrl.dram.writeRowHitRate            80.09                       # Row buffer hit rate for writes (Ratio)
system.mem_ctrl.dram.bytesPerActivate::samples         2086                       # Bytes accessed per row activation (Byte)
system.mem_ctrl.dram.bytesPerActivate::mean   529.058485                       # Bytes accessed per row activation (Byte)
system.mem_ctrl.dram.bytesPerActivate::gmean   353.446618                       # Bytes accessed per row activation (Byte)
system.mem_ctrl.dram.bytesPerActivate::stdev   375.227841                       # Bytes accessed per row activation (Byte)
system.mem_ctrl.dram.bytesPerActivate::0-127          361     17.31%     17.31% # Bytes accessed per row activation (Byte)
system.mem_ctrl.dram.bytesPerActivate::128-255          320     15.34%     32.65% # Bytes accessed per row activation (Byte)
system.mem_ctrl.dram.bytesPerActivate::256-383          245     11.74%     44.39% # Bytes accessed per row activation (Byte)
system.mem_ctrl.dram.bytesPerActivate::384-511           93      4.46%     48.85% # Bytes accessed per row activation (Byte)
system.mem_ctrl.dram.bytesPerActivate::512-639           90      4.31%     53.16% # Bytes accessed per row activation (Byte)
system.mem_ctrl.dram.bytesPerActivate::640-767          317     15.20%     68.36% # Bytes accessed per row activation (Byte)
system.mem_ctrl.dram.bytesPerActivate::768-895           77      3.69%     72.05% # Bytes accessed per row activation (Byte)
system.mem_ctrl.dram.bytesPerActivate::896-1023           29      1.39%     73.44% # Bytes accessed per row activation (Byte)
system.mem_ctrl.dram.bytesPerActivate::1024-1151          554     26.56%    100.00% # Bytes accessed per row activation (Byte)
system.mem_ctrl.dram.bytesPerActivate::total         2086                       # Bytes accessed per row activation (Byte)
system.mem_ctrl.dram.dramBytesRead            1078848                       # Total bytes read (Byte)
system.mem_ctrl.dram.dramBytesWritten           27328                       # Total bytes written (Byte)
system.mem_ctrl.dram.avgRdBW                71.689735                       # Average DRAM read bandwidth in MiBytes/s ((Byte/Second))
system.mem_ctrl.dram.avgWrBW                 1.815953                       # Average DRAM write bandwidth in MiBytes/s ((Byte/Second))
system.mem_ctrl.dram.peakBW                  12800.00                       # Theoretical peak bandwidth in MiByte/s ((Byte/Second))
system.mem_ctrl.dram.busUtil                     0.57                       # Data bus utilization in percentage (Ratio)
system.mem_ctrl.dram.busUtilRead                 0.56                       # Data bus utilization in percentage for reads (Ratio)
system.mem_ctrl.dram.busUtilWrite                0.01                       # Data bus utilization in percentage for writes (Ratio)
system.mem_ctrl.dram.pageHitRate                87.87                       # Row buffer hit rate, read and write combined (Ratio)
system.mem_ctrl.dram.power_state.pwrStateResidencyTicks::UNDEFINED  15048849000                       # Cumulative time (in ticks) in various power states (Tick)
system.mem_ctrl.dram.rank0.actEnergy          7882560                       # Energy for activate commands per rank (pJ) (Joule)
system.mem_ctrl.dram.rank0.preEnergy          4170705                       # Energy for precharge commands per rank (pJ) (Joule)
system.mem_ctrl.dram.rank0.readEnergy        61918080                       # Energy for read commands per rank (pJ) (Joule)
system.mem_ctrl.dram.rank0.writeEnergy        1665180                       # Energy for write commands per rank (pJ) (Joule)
system.mem_ctrl.dram.rank0.refreshEnergy 1187484480.000000                       # Energy for refresh commands per rank (pJ) (Joule)
system.mem_ctrl.dram.rank0.actBackEnergy   1254384180                       # Energy for active background per rank (pJ) (Joule)
system.mem_ctrl.dram.rank0.preBackEnergy   4722434880                       # Energy for precharge background per rank (pJ) (Joule)
system.mem_ctrl.dram.rank0.actPowerDownEnergy            0                       # Energy for active power-down per rank (pJ) (Joule)
system.mem_ctrl.dram.rank0.prePowerDownEnergy            0                       # Energy for precharge power-down per rank (pJ) (Joule)
system.mem_ctrl.dram.rank0.selfRefreshEnergy            0                       # Energy for self refresh per rank (pJ) (Joule)
system.mem_ctrl.dram.rank0.totalEnergy     7239940065                       # Total energy per rank (pJ) (Joule)
system.mem_ctrl.dram.rank0.averagePower    481.095934                       # Core power per rank (mW) (Watt)
system.mem_ctrl.dram.rank0.totalIdleTime            0                       # Total Idle time Per DRAM Rank (Tick)
system.mem_ctrl.dram.rank0.pwrStateTime::IDLE  12264307000                       # Time in different power states (Tick)
system.mem_ctrl.dram.rank0.pwrStateTime::REF    502320000                       # Time in different power states (Tick)
system.mem_ctrl.dram.rank0.pwrStateTime::SREF            0                       # Time in different power states (Tick)
system.mem_ctrl.dram.rank0.pwrStateTime::PRE_PDN            0                       # Time in different power states (Tick)
system.mem_ctrl.dram.rank0.pwrStateTime::ACT   2282222000                       # Time in different power states (Tick)
system.mem_ctrl.dram.rank0.pwrStateTime::ACT_PDN            0                       # Time in different power states (Tick)
system.mem_ctrl.dram.rank1.actEnergy          7082880                       # Energy for activate commands per rank (pJ) (Joule)
system.mem_ctrl.dram.rank1.preEnergy          3741870                       # Energy for precharge commands per rank (pJ) (Joule)
system.mem_ctrl.dram.rank1.readEnergy        58440900                       # Energy for read commands per rank (pJ) (Joule)
system.mem_ctrl.dram.rank1.writeEnergy         537660                       # Energy for write commands per rank (pJ) (Joule)
system.mem_ctrl.dram.rank1.refreshEnergy 1187484480.000000                       # Energy for refresh commands per rank (pJ) (Joule)
system.mem_ctrl.dram.rank1.actBackEnergy   1327655400                       # Energy for active background per rank (pJ) (Joule)
system.mem_ctrl.dram.rank1.preBackEnergy   4660732800                       # Energy for precharge background per rank (pJ) (Joule)
system.mem_ctrl.dram.rank1.actPowerDownEnergy            0                       # Energy for active power-down per rank (pJ) (Joule)
system.mem_ctrl.dram.rank1.prePowerDownEnergy            0                       # Energy for precharge power-down per rank (pJ) (Joule)
system.mem_ctrl.dram.rank1.selfRefreshEnergy            0                       # Energy for self refresh per rank (pJ) (Joule)
system.mem_ctrl.dram.rank1.totalEnergy     7245675990                       # Total energy per rank (pJ) (Joule)
system.mem_ctrl.dram.rank1.averagePower    481.477088                       # Core power per rank (mW) (Watt)
system.mem_ctrl.dram.rank1.totalIdleTime            0                       # Total Idle time Per DRAM Rank (Tick)
system.mem_ctrl.dram.rank1.pwrStateTime::IDLE  12103214250                       # Time in different power states (Tick)
system.mem_ctrl.dram.rank1.pwrStateTime::REF    502320000                       # Time in different power states (Tick)
system.mem_ctrl.dram.rank1.pwrStateTime::SREF            0                       # Time in different power states (Tick)
system.mem_ctrl.dram.rank1.pwrStateTime::PRE_PDN            0                       # Time in different power states (Tick)
system.mem_ctrl.dram.rank1.pwrStateTime::ACT   2443314750                       # Time in different power states (Tick)
system.mem_ctrl.dram.rank1.pwrStateTime::ACT_PDN            0                       # Time in different power states (Tick)
system.mem_ctrl.power_state.pwrStateResidencyTicks::UNDEFINED  15048849000                       # Cumulative time (in ticks) in various power states (Tick)
system.membus.transDist::ReadResp                3373                       # Transaction distribution (Count)
system.membus.transDist::WritebackDirty           454                       # Transaction distribution (Count)
system.membus.transDist::CleanEvict               771                       # Transaction distribution (Count)
system.membus.transDist::ReadExReq              13484                       # Transaction distribution (Count)
system.membus.transDist::ReadExResp             13484                       # Transaction distribution (Count)
system.membus.transDist::ReadSharedReq           3373                       # Transaction distribution (Count)
system.membus.pktCount_system.l2cache.mem_side_port::system.mem_ctrl.port        34939                       # Packet count per connected requestor and responder (Count)
system.membus.pktCount_system.l2cache.mem_side_port::total        34939                       # Packet count per connected requestor and responder (Count)
system.membus.pktCount::total                   34939                       # Packet count per connected requestor and responder (Count)
system.membus.pktSize_system.l2cache.mem_side_port::system.mem_ctrl.port      1107904                       # Cumulative packet size per connected requestor and responder (Byte)
system.membus.pktSize_system.l2cache.mem_side_port::total      1107904                       # Cumulative packet size per connected requestor and responder (Byte)
system.membus.pktSize::total                  1107904                       # Cumulative packet size per connected requestor and responder (Byte)
system.membus.snoops                                0                       # Total snoops (Count)
system.membus.snoopTraffic                          0                       # Total snoop traffic (Byte)
system.membus.snoopFanout::samples              16857                       # Request fanout histogram (Count)
system.membus.snoopFanout::mean                     0                       # Request fanout histogram (Count)
system.membus.snoopFanout::stdev                    0                       # Request fanout histogram (Count)
system.membus.snoopFanout::underflows               0      0.00%      0.00% # Request fanout histogram (Count)
system.membus.snoopFanout::0                    16857    100.00%    100.00% # Request fanout histogram (Count)
system.membus.snoopFanout::1                        0      0.00%    100.00% # Request fanout histogram (Count)
system.membus.snoopFanout::overflows                0      0.00%    100.00% # Request fanout histogram (Count)
system.membus.snoopFanout::min_value                0                       # Request fanout histogram (Count)
system.membus.snoopFanout::max_value                0                       # Request fanout histogram (Count)
system.membus.snoopFanout::total                16857                       # Request fanout histogram (Count)
system.membus.power_state.pwrStateResidencyTicks::UNDEFINED  15048849000                       # Cumulative time (in ticks) in various power states (Tick)
system.membus.reqLayer2.occupancy             9949000                       # Layer occupancy (ticks) (Tick)
system.membus.reqLayer2.utilization               0.0                       # Layer utilization (Ratio)
system.membus.respLayer0.occupancy           45973250                       # Layer occupancy (ticks) (Tick)
system.membus.respLayer0.utilization              0.0                       # Layer utilization (Ratio)
system.membus.snoop_filter.totRequests          18082                       # Total number of requests made to the snoop filter. (Count)
system.membus.snoop_filter.hitSingleRequests         1225                       # Number of requests hitting in the snoop filter with a single holder of the requested data. (Count)
system.membus.snoop_filter.hitMultiRequests            0                       # Number of requests hitting in the snoop filter with multiple (>1) holders of the requested data. (Count)
system.membus.snoop_filter.totSnoops                0                       # Total number of snoops made to the snoop filter. (Count)
system.membus.snoop_filter.hitSingleSnoops            0                       # Number of snoops hitting in the snoop filter with a single holder of the requested data. (Count)
system.membus.snoop_filter.hitMultiSnoops            0                       # Number of snoops hitting in the snoop filter with multiple (>1) holders of the requested data. (Count)
system.workload.inst.arm                            0                       # number of arm instructions executed (Count)
system.workload.inst.quiesce                        0                       # number of quiesce instructions executed (Count)
system.cpu.dcache.decays                        52089                       # Number of decays (Unspecified)

---------- End Simulation Statistics   ----------
