
---------- Begin Simulation Statistics ----------
simSeconds                                   0.000496                       # Number of seconds simulated (Second)
simTicks                                    496012000                       # Number of ticks simulated (Tick)
finalTick                                   496012000                       # Number of ticks from beginning of simulation (restored from checkpoints and never reset) (Tick)
simFreq                                  1000000000000                       # The number of ticks per simulated second ((Tick/Second))
hostSeconds                                      5.77                       # Real time elapsed on the host (Second)
hostTickRate                                 85897600                       # The number of ticks simulated per host second (ticks/s) ((Tick/Second))
hostMemory                                     756716                       # Number of bytes of host memory used (Byte)
simInsts                                       809878                       # Number of instructions simulated (Count)
simOps                                        1473547                       # Number of ops (including micro ops) simulated (Count)
hostInstRate                                   140247                       # Simulator instruction rate (inst/s) ((Count/Second))
hostOpRate                                     255174                       # Simulator op (including micro ops) rate (op/s) ((Count/Second))
system.clk_domain.clock                           500                       # Clock period in ticks (Tick)
system.clk_domain.voltage_domain.voltage            1                       # Voltage in Volts (Volt)
system.cpu.numCycles                           992025                       # Number of cpu cycles simulated (Cycle)
system.cpu.cpi                               1.224907                       # CPI: cycles per instruction (core level) ((Cycle/Count))
system.cpu.ipc                               0.816389                       # IPC: instructions per cycle (core level) ((Count/Cycle))
system.cpu.numWorkItemsStarted                      0                       # Number of work items this cpu started (Count)
system.cpu.numWorkItemsCompleted                    0                       # Number of work items this cpu completed (Count)
system.cpu.instsAdded                         1574115                       # Number of instructions added to the IQ (excludes non-spec) (Count)
system.cpu.nonSpecInstsAdded                      487                       # Number of non-speculative instructions added to the IQ (Count)
system.cpu.instsIssued                        1550472                       # Number of instructions issued (Count)
system.cpu.squashedInstsIssued                   1472                       # Number of squashed instructions issued (Count)
system.cpu.squashedInstsExamined               101049                       # Number of squashed instructions iterated over during squash; mainly for profiling (Count)
system.cpu.squashedOperandsExamined            144661                       # Number of squashed operands that are examined and possibly removed from graph (Count)
system.cpu.squashedNonSpecRemoved                  94                       # Number of squashed non-spec instructions that were removed (Count)
system.cpu.numIssuedDist::samples              839514                       # Number of insts issued each cycle (Count)
system.cpu.numIssuedDist::mean               1.846869                       # Number of insts issued each cycle (Count)
system.cpu.numIssuedDist::stdev              1.596549                       # Number of insts issued each cycle (Count)
system.cpu.numIssuedDist::underflows                0      0.00%      0.00% # Number of insts issued each cycle (Count)
system.cpu.numIssuedDist::0                    283083     33.72%     33.72% # Number of insts issued each cycle (Count)
system.cpu.numIssuedDist::1                     95521     11.38%     45.10% # Number of insts issued each cycle (Count)
system.cpu.numIssuedDist::2                    127076     15.14%     60.23% # Number of insts issued each cycle (Count)
system.cpu.numIssuedDist::3                    134537     16.03%     76.26% # Number of insts issued each cycle (Count)
system.cpu.numIssuedDist::4                    199297     23.74%    100.00% # Number of insts issued each cycle (Count)
system.cpu.numIssuedDist::overflows                 0      0.00%    100.00% # Number of insts issued each cycle (Count)
system.cpu.numIssuedDist::min_value                 0                       # Number of insts issued each cycle (Count)
system.cpu.numIssuedDist::max_value                 4                       # Number of insts issued each cycle (Count)
system.cpu.numIssuedDist::total                839514                       # Number of insts issued each cycle (Count)
system.cpu.statFuBusy::No_OpClass                   0                       # attempts to use FU when none available (Count)
system.cpu.statFuBusy::IntAlu                       0                       # attempts to use FU when none available (Count)
system.cpu.statFuBusy::IntMult                      0                       # attempts to use FU when none available (Count)
system.cpu.statFuBusy::IntDiv                       0                       # attempts to use FU when none available (Count)
system.cpu.statFuBusy::FloatAdd                     0                       # attempts to use FU when none available (Count)
system.cpu.statFuBusy::FloatCmp                     0                       # attempts to use FU when none available (Count)
system.cpu.statFuBusy::FloatCvt                     0                       # attempts to use FU when none available (Count)
system.cpu.statFuBusy::FloatMult                    0                       # attempts to use FU when none available (Count)
system.cpu.statFuBusy::FloatMultAcc                 0                       # attempts to use FU when none available (Count)
system.cpu.statFuBusy::FloatDiv                     0                       # attempts to use FU when none available (Count)
system.cpu.statFuBusy::FloatMisc                    0                       # attempts to use FU when none available (Count)
system.cpu.statFuBusy::FloatSqrt                    0                       # attempts to use FU when none available (Count)
system.cpu.statFuBusy::SimdAdd                      0                       # attempts to use FU when none available (Count)
system.cpu.statFuBusy::SimdAddAcc                   0                       # attempts to use FU when none available (Count)
system.cpu.statFuBusy::SimdAlu                      0                       # attempts to use FU when none available (Count)
system.cpu.statFuBusy::SimdCmp                      0                       # attempts to use FU when none available (Count)
system.cpu.statFuBusy::SimdCvt                      0                       # attempts to use FU when none available (Count)
system.cpu.statFuBusy::SimdMisc                     0                       # attempts to use FU when none available (Count)
system.cpu.statFuBusy::SimdMult                     0                       # attempts to use FU when none available (Count)
system.cpu.statFuBusy::SimdMultAcc                  0                       # attempts to use FU when none available (Count)
system.cpu.statFuBusy::SimdMatMultAcc               0                       # attempts to use FU when none available (Count)
system.cpu.statFuBusy::SimdShift                    0                       # attempts to use FU when none available (Count)
system.cpu.statFuBusy::SimdShiftAcc                 0                       # attempts to use FU when none available (Count)
system.cpu.statFuBusy::SimdDiv                      0                       # attempts to use FU when none available (Count)
system.cpu.statFuBusy::SimdSqrt                     0                       # attempts to use FU when none available (Count)
system.cpu.statFuBusy::SimdFloatAdd                 0                       # attempts to use FU when none available (Count)
system.cpu.statFuBusy::SimdFloatAlu                 0                       # attempts to use FU when none available (Count)
system.cpu.statFuBusy::SimdFloatCmp                 0                       # attempts to use FU when none available (Count)
system.cpu.statFuBusy::SimdFloatCvt                 0                       # attempts to use FU when none available (Count)
system.cpu.statFuBusy::SimdFloatDiv                 0                       # attempts to use FU when none available (Count)
system.cpu.statFuBusy::SimdFloatMisc                0                       # attempts to use FU when none available (Count)
system.cpu.statFuBusy::SimdFloatMult                0                       # attempts to use FU when none available (Count)
system.cpu.statFuBusy::SimdFloatMultAcc             0                       # attempts to use FU when none available (Count)
system.cpu.statFuBusy::SimdFloatMatMultAcc            0                       # attempts to use FU when none available (Count)
system.cpu.statFuBusy::SimdFloatSqrt                0                       # attempts to use FU when none available (Count)
system.cpu.statFuBusy::SimdReduceAdd                0                       # attempts to use FU when none available (Count)
system.cpu.statFuBusy::SimdReduceAlu                0                       # attempts to use FU when none available (Count)
system.cpu.statFuBusy::SimdReduceCmp                0                       # attempts to use FU when none available (Count)
system.cpu.statFuBusy::SimdFloatReduceAdd            0                       # attempts to use FU when none available (Count)
system.cpu.statFuBusy::SimdFloatReduceCmp            0                       # attempts to use FU when none available (Count)
system.cpu.statFuBusy::SimdAes                      0                       # attempts to use FU when none available (Count)
system.cpu.statFuBusy::SimdAesMix                   0                       # attempts to use FU when none available (Count)
system.cpu.statFuBusy::SimdSha1Hash                 0                       # attempts to use FU when none available (Count)
system.cpu.statFuBusy::SimdSha1Hash2                0                       # attempts to use FU when none available (Count)
system.cpu.statFuBusy::SimdSha256Hash               0                       # attempts to use FU when none available (Count)
system.cpu.statFuBusy::SimdSha256Hash2              0                       # attempts to use FU when none available (Count)
system.cpu.statFuBusy::SimdShaSigma2                0                       # attempts to use FU when none available (Count)
system.cpu.statFuBusy::SimdShaSigma3                0                       # attempts to use FU when none available (Count)
system.cpu.statFuBusy::SimdPredAlu                  0                       # attempts to use FU when none available (Count)
system.cpu.statFuBusy::Matrix                       0                       # attempts to use FU when none available (Count)
system.cpu.statFuBusy::MatrixMov                    0                       # attempts to use FU when none available (Count)
system.cpu.statFuBusy::MatrixOP                     0                       # attempts to use FU when none available (Count)
system.cpu.statFuBusy::MemRead                      0                       # attempts to use FU when none available (Count)
system.cpu.statFuBusy::MemWrite                     0                       # attempts to use FU when none available (Count)
system.cpu.statFuBusy::FloatMemRead                 0                       # attempts to use FU when none available (Count)
system.cpu.statFuBusy::FloatMemWrite                0                       # attempts to use FU when none available (Count)
system.cpu.statFuBusy::IprAccess                    0                       # attempts to use FU when none available (Count)
system.cpu.statFuBusy::InstPrefetch                 0                       # attempts to use FU when none available (Count)
system.cpu.statFuBusy::SimdUnitStrideLoad            0                       # attempts to use FU when none available (Count)
system.cpu.statFuBusy::SimdUnitStrideStore            0                       # attempts to use FU when none available (Count)
system.cpu.statFuBusy::SimdUnitStrideMaskLoad            0                       # attempts to use FU when none available (Count)
system.cpu.statFuBusy::SimdUnitStrideMaskStore            0                       # attempts to use FU when none available (Count)
system.cpu.statFuBusy::SimdStridedLoad              0                       # attempts to use FU when none available (Count)
system.cpu.statFuBusy::SimdStridedStore             0                       # attempts to use FU when none available (Count)
system.cpu.statFuBusy::SimdIndexedLoad              0                       # attempts to use FU when none available (Count)
system.cpu.statFuBusy::SimdIndexedStore             0                       # attempts to use FU when none available (Count)
system.cpu.statFuBusy::SimdWholeRegisterLoad            0                       # attempts to use FU when none available (Count)
system.cpu.statFuBusy::SimdWholeRegisterStore            0                       # attempts to use FU when none available (Count)
system.cpu.statFuBusy::SimdUnitStrideFaultOnlyFirstLoad            0                       # attempts to use FU when none available (Count)
system.cpu.statFuBusy::SimdUnitStrideSegmentedLoad            0                       # attempts to use FU when none available (Count)
system.cpu.statFuBusy::SimdUnitStrideSegmentedStore            0                       # attempts to use FU when none available (Count)
system.cpu.statFuBusy::SimdExt                      0                       # attempts to use FU when none available (Count)
system.cpu.statFuBusy::SimdFloatExt                 0                       # attempts to use FU when none available (Count)
system.cpu.statFuBusy::SimdConfig                   0                       # attempts to use FU when none available (Count)
system.cpu.statIssuedInstType_0::No_OpClass         7161      0.46%      0.46% # Number of instructions issued per FU type, per thread (Count)
system.cpu.statIssuedInstType_0::IntAlu        883008     56.95%     57.41% # Number of instructions issued per FU type, per thread (Count)
system.cpu.statIssuedInstType_0::IntMult         2015      0.13%     57.54% # Number of instructions issued per FU type, per thread (Count)
system.cpu.statIssuedInstType_0::IntDiv          8950      0.58%     58.12% # Number of instructions issued per FU type, per thread (Count)
system.cpu.statIssuedInstType_0::FloatAdd        73943      4.77%     62.89% # Number of instructions issued per FU type, per thread (Count)
system.cpu.statIssuedInstType_0::FloatCmp            0      0.00%     62.89% # Number of instructions issued per FU type, per thread (Count)
system.cpu.statIssuedInstType_0::FloatCvt          344      0.02%     62.91% # Number of instructions issued per FU type, per thread (Count)
system.cpu.statIssuedInstType_0::FloatMult            0      0.00%     62.91% # Number of instructions issued per FU type, per thread (Count)
system.cpu.statIssuedInstType_0::FloatMultAcc            0      0.00%     62.91% # Number of instructions issued per FU type, per thread (Count)
system.cpu.statIssuedInstType_0::FloatDiv            0      0.00%     62.91% # Number of instructions issued per FU type, per thread (Count)
system.cpu.statIssuedInstType_0::FloatMisc            0      0.00%     62.91% # Number of instructions issued per FU type, per thread (Count)
system.cpu.statIssuedInstType_0::FloatSqrt            0      0.00%     62.91% # Number of instructions issued per FU type, per thread (Count)
system.cpu.statIssuedInstType_0::SimdAdd          771      0.05%     62.96% # Number of instructions issued per FU type, per thread (Count)
system.cpu.statIssuedInstType_0::SimdAddAcc            0      0.00%     62.96% # Number of instructions issued per FU type, per thread (Count)
system.cpu.statIssuedInstType_0::SimdAlu        23798      1.53%     64.50% # Number of instructions issued per FU type, per thread (Count)
system.cpu.statIssuedInstType_0::SimdCmp           26      0.00%     64.50% # Number of instructions issued per FU type, per thread (Count)
system.cpu.statIssuedInstType_0::SimdCvt         2144      0.14%     64.64% # Number of instructions issued per FU type, per thread (Count)
system.cpu.statIssuedInstType_0::SimdMisc         7766      0.50%     65.14% # Number of instructions issued per FU type, per thread (Count)
system.cpu.statIssuedInstType_0::SimdMult            0      0.00%     65.14% # Number of instructions issued per FU type, per thread (Count)
system.cpu.statIssuedInstType_0::SimdMultAcc            0      0.00%     65.14% # Number of instructions issued per FU type, per thread (Count)
system.cpu.statIssuedInstType_0::SimdMatMultAcc            0      0.00%     65.14% # Number of instructions issued per FU type, per thread (Count)
system.cpu.statIssuedInstType_0::SimdShift          765      0.05%     65.19% # Number of instructions issued per FU type, per thread (Count)
system.cpu.statIssuedInstType_0::SimdShiftAcc            0      0.00%     65.19% # Number of instructions issued per FU type, per thread (Count)
system.cpu.statIssuedInstType_0::SimdDiv            0      0.00%     65.19% # Number of instructions issued per FU type, per thread (Count)
system.cpu.statIssuedInstType_0::SimdSqrt            0      0.00%     65.19% # Number of instructions issued per FU type, per thread (Count)
system.cpu.statIssuedInstType_0::SimdFloatAdd       115563      7.45%     72.64% # Number of instructions issued per FU type, per thread (Count)
system.cpu.statIssuedInstType_0::SimdFloatAlu            0      0.00%     72.64% # Number of instructions issued per FU type, per thread (Count)
system.cpu.statIssuedInstType_0::SimdFloatCmp         8022      0.52%     73.16% # Number of instructions issued per FU type, per thread (Count)
system.cpu.statIssuedInstType_0::SimdFloatCvt         2579      0.17%     73.32% # Number of instructions issued per FU type, per thread (Count)
system.cpu.statIssuedInstType_0::SimdFloatDiv         8112      0.52%     73.85% # Number of instructions issued per FU type, per thread (Count)
system.cpu.statIssuedInstType_0::SimdFloatMisc            0      0.00%     73.85% # Number of instructions issued per FU type, per thread (Count)
system.cpu.statIssuedInstType_0::SimdFloatMult        43489      2.80%     76.65% # Number of instructions issued per FU type, per thread (Count)
system.cpu.statIssuedInstType_0::SimdFloatMultAcc            0      0.00%     76.65% # Number of instructions issued per FU type, per thread (Count)
system.cpu.statIssuedInstType_0::SimdFloatMatMultAcc            0      0.00%     76.65% # Number of instructions issued per FU type, per thread (Count)
system.cpu.statIssuedInstType_0::SimdFloatSqrt            1      0.00%     76.65% # Number of instructions issued per FU type, per thread (Count)
system.cpu.statIssuedInstType_0::SimdReduceAdd            0      0.00%     76.65% # Number of instructions issued per FU type, per thread (Count)
system.cpu.statIssuedInstType_0::SimdReduceAlu            0      0.00%     76.65% # Number of instructions issued per FU type, per thread (Count)
system.cpu.statIssuedInstType_0::SimdReduceCmp            0      0.00%     76.65% # Number of instructions issued per FU type, per thread (Count)
system.cpu.statIssuedInstType_0::SimdFloatReduceAdd            0      0.00%     76.65% # Number of instructions issued per FU type, per thread (Count)
system.cpu.statIssuedInstType_0::SimdFloatReduceCmp            0      0.00%     76.65% # Number of instructions issued per FU type, per thread (Count)
system.cpu.statIssuedInstType_0::SimdAes            0      0.00%     76.65% # Number of instructions issued per FU type, per thread (Count)
system.cpu.statIssuedInstType_0::SimdAesMix            0      0.00%     76.65% # Number of instructions issued per FU type, per thread (Count)
system.cpu.statIssuedInstType_0::SimdSha1Hash            0      0.00%     76.65% # Number of instructions issued per FU type, per thread (Count)
system.cpu.statIssuedInstType_0::SimdSha1Hash2            0      0.00%     76.65% # Number of instructions issued per FU type, per thread (Count)
system.cpu.statIssuedInstType_0::SimdSha256Hash            0      0.00%     76.65% # Number of instructions issued per FU type, per thread (Count)
system.cpu.statIssuedInstType_0::SimdSha256Hash2            0      0.00%     76.65% # Number of instructions issued per FU type, per thread (Count)
system.cpu.statIssuedInstType_0::SimdShaSigma2            0      0.00%     76.65% # Number of instructions issued per FU type, per thread (Count)
system.cpu.statIssuedInstType_0::SimdShaSigma3            0      0.00%     76.65% # Number of instructions issued per FU type, per thread (Count)
system.cpu.statIssuedInstType_0::SimdPredAlu            0      0.00%     76.65% # Number of instructions issued per FU type, per thread (Count)
system.cpu.statIssuedInstType_0::Matrix             0      0.00%     76.65% # Number of instructions issued per FU type, per thread (Count)
system.cpu.statIssuedInstType_0::MatrixMov            0      0.00%     76.65% # Number of instructions issued per FU type, per thread (Count)
system.cpu.statIssuedInstType_0::MatrixOP            0      0.00%     76.65% # Number of instructions issued per FU type, per thread (Count)
system.cpu.statIssuedInstType_0::MemRead       142424      9.19%     85.84% # Number of instructions issued per FU type, per thread (Count)
system.cpu.statIssuedInstType_0::MemWrite        49084      3.17%     89.00% # Number of instructions issued per FU type, per thread (Count)
system.cpu.statIssuedInstType_0::FloatMemRead       132903      8.57%     97.57% # Number of instructions issued per FU type, per thread (Count)
system.cpu.statIssuedInstType_0::FloatMemWrite        37604      2.43%    100.00% # Number of instructions issued per FU type, per thread (Count)
system.cpu.statIssuedInstType_0::IprAccess            0      0.00%    100.00% # Number of instructions issued per FU type, per thread (Count)
system.cpu.statIssuedInstType_0::InstPrefetch            0      0.00%    100.00% # Number of instructions issued per FU type, per thread (Count)
system.cpu.statIssuedInstType_0::SimdUnitStrideLoad            0      0.00%    100.00% # Number of instructions issued per FU type, per thread (Count)
system.cpu.statIssuedInstType_0::SimdUnitStrideStore            0      0.00%    100.00% # Number of instructions issued per FU type, per thread (Count)
system.cpu.statIssuedInstType_0::SimdUnitStrideMaskLoad            0      0.00%    100.00% # Number of instructions issued per FU type, per thread (Count)
system.cpu.statIssuedInstType_0::SimdUnitStrideMaskStore            0      0.00%    100.00% # Number of instructions issued per FU type, per thread (Count)
system.cpu.statIssuedInstType_0::SimdStridedLoad            0      0.00%    100.00% # Number of instructions issued per FU type, per thread (Count)
system.cpu.statIssuedInstType_0::SimdStridedStore            0      0.00%    100.00% # Number of instructions issued per FU type, per thread (Count)
system.cpu.statIssuedInstType_0::SimdIndexedLoad            0      0.00%    100.00% # Number of instructions issued per FU type, per thread (Count)
system.cpu.statIssuedInstType_0::SimdIndexedStore            0      0.00%    100.00% # Number of instructions issued per FU type, per thread (Count)
system.cpu.statIssuedInstType_0::SimdWholeRegisterLoad            0      0.00%    100.00% # Number of instructions issued per FU type, per thread (Count)
system.cpu.statIssuedInstType_0::SimdWholeRegisterStore            0      0.00%    100.00% # Number of instructions issued per FU type, per thread (Count)
system.cpu.statIssuedInstType_0::SimdUnitStrideFaultOnlyFirstLoad            0      0.00%    100.00% # Number of instructions issued per FU type, per thread (Count)
system.cpu.statIssuedInstType_0::SimdUnitStrideSegmentedLoad            0      0.00%    100.00% # Number of instructions issued per FU type, per thread (Count)
system.cpu.statIssuedInstType_0::SimdUnitStrideSegmentedStore            0      0.00%    100.00% # Number of instructions issued per FU type, per thread (Count)
system.cpu.statIssuedInstType_0::SimdExt            0      0.00%    100.00% # Number of instructions issued per FU type, per thread (Count)
system.cpu.statIssuedInstType_0::SimdFloatExt            0      0.00%    100.00% # Number of instructions issued per FU type, per thread (Count)
system.cpu.statIssuedInstType_0::SimdConfig            0      0.00%    100.00% # Number of instructions issued per FU type, per thread (Count)
system.cpu.statIssuedInstType_0::total        1550472                       # Number of instructions issued per FU type, per thread (Count)
system.cpu.issueRate                         1.562936                       # Inst issue rate ((Count/Cycle))
system.cpu.fuBusy                                   0                       # FU busy when requested (Count)
system.cpu.fuBusyRate                               0                       # FU busy rate (busy events/executed inst) ((Count/Count))
system.cpu.intInstQueueReads                  2910580                       # Number of integer instruction queue reads (Count)
system.cpu.intInstQueueWrites                 1149114                       # Number of integer instruction queue writes (Count)
system.cpu.intInstQueueWakeupAccesses         1020982                       # Number of integer instruction queue wakeup accesses (Count)
system.cpu.fpInstQueueReads                   1031350                       # Number of floating instruction queue reads (Count)
system.cpu.fpInstQueueWrites                   526634                       # Number of floating instruction queue writes (Count)
system.cpu.fpInstQueueWakeupAccesses           513190                       # Number of floating instruction queue wakeup accesses (Count)
system.cpu.vecInstQueueReads                        0                       # Number of vector instruction queue reads (Count)
system.cpu.vecInstQueueWrites                       0                       # Number of vector instruction queue writes (Count)
system.cpu.vecInstQueueWakeupAccesses               0                       # Number of vector instruction queue wakeup accesses (Count)
system.cpu.intAluAccesses                     1027712                       # Number of integer alu accesses (Count)
system.cpu.fpAluAccesses                       515599                       # Number of floating point alu accesses (Count)
system.cpu.vecAluAccesses                           0                       # Number of vector alu accesses (Count)
system.cpu.numRecvResp                         348749                       # Number of received responses (Count)
system.cpu.numRecvRespBytes                   2604811                       # Number of received response bytes (Byte)
system.cpu.recvRespAvgBW                         2.63                       # Average bandwidth of received responses ((Byte/Cycle))
system.cpu.recvRespAvgSize                       7.47                       # Average packet size per received response ((Byte/Count))
system.cpu.recvRespAvgRate                       0.35                       # Average rate of received responses per cycle ((Count/Cycle))
system.cpu.recvRespAvgRetryRate                  0.00                       # Average retry rate per received response ((Count/Count))
system.cpu.numSendRetryResp                         0                       # Number of retry responses sent (Count)
system.cpu.numSquashedInsts                     10350                       # Number of squashed instructions skipped in execute (Count)
system.cpu.numSwp                                   0                       # Number of swp insts executed (Count)
system.cpu.timesIdled                            1861                       # Number of times that the entire CPU went into an idle state and unscheduled itself (Count)
system.cpu.idleCycles                          152511                       # Total number of cycles that the CPU has spent unscheduled due to idling (Cycle)
system.cpu.MemDepUnit__0.insertedLoads         277724                       # Number of loads inserted to the mem dependence unit. (Count)
system.cpu.MemDepUnit__0.insertedStores         88606                       # Number of stores inserted to the mem dependence unit. (Count)
system.cpu.MemDepUnit__0.conflictingLoads         5114                       # Number of conflicting loads. (Count)
system.cpu.MemDepUnit__0.conflictingStores         4037                       # Number of conflicting stores. (Count)
system.cpu.MemDepUnit__1.insertedLoads              0                       # Number of loads inserted to the mem dependence unit. (Count)
system.cpu.MemDepUnit__1.insertedStores             0                       # Number of stores inserted to the mem dependence unit. (Count)
system.cpu.MemDepUnit__1.conflictingLoads            0                       # Number of conflicting loads. (Count)
system.cpu.MemDepUnit__1.conflictingStores            0                       # Number of conflicting stores. (Count)
system.cpu.MemDepUnit__2.insertedLoads              0                       # Number of loads inserted to the mem dependence unit. (Count)
system.cpu.MemDepUnit__2.insertedStores             0                       # Number of stores inserted to the mem dependence unit. (Count)
system.cpu.MemDepUnit__2.conflictingLoads            0                       # Number of conflicting loads. (Count)
system.cpu.MemDepUnit__2.conflictingStores            0                       # Number of conflicting stores. (Count)
system.cpu.MemDepUnit__3.insertedLoads              0                       # Number of loads inserted to the mem dependence unit. (Count)
system.cpu.MemDepUnit__3.insertedStores             0                       # Number of stores inserted to the mem dependence unit. (Count)
system.cpu.MemDepUnit__3.conflictingLoads            0                       # Number of conflicting loads. (Count)
system.cpu.MemDepUnit__3.conflictingStores            0                       # Number of conflicting stores. (Count)
system.cpu.branchPred.lookups_0::NoBranch          490      0.38%      0.38% # Number of BP lookups (Count)
system.cpu.branchPred.lookups_0::Return          7079      5.44%      5.82% # Number of BP lookups (Count)
system.cpu.branchPred.lookups_0::CallDirect         7240      5.57%     11.39% # Number of BP lookups (Count)
system.cpu.branchPred.lookups_0::CallIndirect          240      0.18%     11.57% # Number of BP lookups (Count)
system.cpu.branchPred.lookups_0::DirectCond       102611     78.89%     90.46% # Number of BP lookups (Count)
system.cpu.branchPred.lookups_0::DirectUncond         7232      5.56%     96.02% # Number of BP lookups (Count)
system.cpu.branchPred.lookups_0::IndirectCond            0      0.00%     96.02% # Number of BP lookups (Count)
system.cpu.branchPred.lookups_0::IndirectUncond         5172      3.98%    100.00% # Number of BP lookups (Count)
system.cpu.branchPred.lookups_0::total         130064                       # Number of BP lookups (Count)
system.cpu.branchPred.squashes_0::NoBranch          440      2.46%      2.46% # Number of branches that got squashed (completely removed) as an earlier branch was mispredicted. (Count)
system.cpu.branchPred.squashes_0::Return          762      4.26%      6.71% # Number of branches that got squashed (completely removed) as an earlier branch was mispredicted. (Count)
system.cpu.branchPred.squashes_0::CallDirect         1091      6.09%     12.81% # Number of branches that got squashed (completely removed) as an earlier branch was mispredicted. (Count)
system.cpu.branchPred.squashes_0::CallIndirect           66      0.37%     13.18% # Number of branches that got squashed (completely removed) as an earlier branch was mispredicted. (Count)
system.cpu.branchPred.squashes_0::DirectCond        12966     72.42%     85.59% # Number of branches that got squashed (completely removed) as an earlier branch was mispredicted. (Count)
system.cpu.branchPred.squashes_0::DirectUncond         1602      8.95%     94.54% # Number of branches that got squashed (completely removed) as an earlier branch was mispredicted. (Count)
system.cpu.branchPred.squashes_0::IndirectCond            0      0.00%     94.54% # Number of branches that got squashed (completely removed) as an earlier branch was mispredicted. (Count)
system.cpu.branchPred.squashes_0::IndirectUncond          978      5.46%    100.00% # Number of branches that got squashed (completely removed) as an earlier branch was mispredicted. (Count)
system.cpu.branchPred.squashes_0::total         17905                       # Number of branches that got squashed (completely removed) as an earlier branch was mispredicted. (Count)
system.cpu.branchPred.corrected_0::NoBranch           70      0.96%      0.96% # Number of branches that got corrected but not yet commited. Branches get corrected by decode or after execute. Also a branch misprediction can be detected out-of-order. Therefore, a corrected branch might not end up beeing committed in case an even earlier branch was mispredicted (Count)
system.cpu.branchPred.corrected_0::Return            5      0.07%      1.03% # Number of branches that got corrected but not yet commited. Branches get corrected by decode or after execute. Also a branch misprediction can be detected out-of-order. Therefore, a corrected branch might not end up beeing committed in case an even earlier branch was mispredicted (Count)
system.cpu.branchPred.corrected_0::CallDirect          727     10.00%     11.04% # Number of branches that got corrected but not yet commited. Branches get corrected by decode or after execute. Also a branch misprediction can be detected out-of-order. Therefore, a corrected branch might not end up beeing committed in case an even earlier branch was mispredicted (Count)
system.cpu.branchPred.corrected_0::CallIndirect          146      2.01%     13.05% # Number of branches that got corrected but not yet commited. Branches get corrected by decode or after execute. Also a branch misprediction can be detected out-of-order. Therefore, a corrected branch might not end up beeing committed in case an even earlier branch was mispredicted (Count)
system.cpu.branchPred.corrected_0::DirectCond         5105     70.25%     83.29% # Number of branches that got corrected but not yet commited. Branches get corrected by decode or after execute. Also a branch misprediction can be detected out-of-order. Therefore, a corrected branch might not end up beeing committed in case an even earlier branch was mispredicted (Count)
system.cpu.branchPred.corrected_0::DirectUncond          809     11.13%     94.43% # Number of branches that got corrected but not yet commited. Branches get corrected by decode or after execute. Also a branch misprediction can be detected out-of-order. Therefore, a corrected branch might not end up beeing committed in case an even earlier branch was mispredicted (Count)
system.cpu.branchPred.corrected_0::IndirectCond            0      0.00%     94.43% # Number of branches that got corrected but not yet commited. Branches get corrected by decode or after execute. Also a branch misprediction can be detected out-of-order. Therefore, a corrected branch might not end up beeing committed in case an even earlier branch was mispredicted (Count)
system.cpu.branchPred.corrected_0::IndirectUncond          405      5.57%    100.00% # Number of branches that got corrected but not yet commited. Branches get corrected by decode or after execute. Also a branch misprediction can be detected out-of-order. Therefore, a corrected branch might not end up beeing committed in case an even earlier branch was mispredicted (Count)
system.cpu.branchPred.corrected_0::total         7267                       # Number of branches that got corrected but not yet commited. Branches get corrected by decode or after execute. Also a branch misprediction can be detected out-of-order. Therefore, a corrected branch might not end up beeing committed in case an even earlier branch was mispredicted (Count)
system.cpu.branchPred.earlyResteers_0::NoBranch            0                       # Number of branches that got redirected after decode. (Count)
system.cpu.branchPred.earlyResteers_0::Return            0                       # Number of branches that got redirected after decode. (Count)
system.cpu.branchPred.earlyResteers_0::CallDirect            0                       # Number of branches that got redirected after decode. (Count)
system.cpu.branchPred.earlyResteers_0::CallIndirect            0                       # Number of branches that got redirected after decode. (Count)
system.cpu.branchPred.earlyResteers_0::DirectCond            0                       # Number of branches that got redirected after decode. (Count)
system.cpu.branchPred.earlyResteers_0::DirectUncond            0                       # Number of branches that got redirected after decode. (Count)
system.cpu.branchPred.earlyResteers_0::IndirectCond            0                       # Number of branches that got redirected after decode. (Count)
system.cpu.branchPred.earlyResteers_0::IndirectUncond            0                       # Number of branches that got redirected after decode. (Count)
system.cpu.branchPred.earlyResteers_0::total            0                       # Number of branches that got redirected after decode. (Count)
system.cpu.branchPred.committed_0::NoBranch           50      0.04%      0.04% # Number of branches finally committed  (Count)
system.cpu.branchPred.committed_0::Return         6317      5.63%      5.68% # Number of branches finally committed  (Count)
system.cpu.branchPred.committed_0::CallDirect         6149      5.48%     11.16% # Number of branches finally committed  (Count)
system.cpu.branchPred.committed_0::CallIndirect          174      0.16%     11.31% # Number of branches finally committed  (Count)
system.cpu.branchPred.committed_0::DirectCond        89644     79.93%     91.24% # Number of branches finally committed  (Count)
system.cpu.branchPred.committed_0::DirectUncond         5630      5.02%     96.26% # Number of branches finally committed  (Count)
system.cpu.branchPred.committed_0::IndirectCond            0      0.00%     96.26% # Number of branches finally committed  (Count)
system.cpu.branchPred.committed_0::IndirectUncond         4194      3.74%    100.00% # Number of branches finally committed  (Count)
system.cpu.branchPred.committed_0::total       112158                       # Number of branches finally committed  (Count)
system.cpu.branchPred.mispredicted_0::NoBranch           50      0.78%      0.78% # Number of committed branches that were mispredicted. (Count)
system.cpu.branchPred.mispredicted_0::Return            0      0.00%      0.78% # Number of committed branches that were mispredicted. (Count)
system.cpu.branchPred.mispredicted_0::CallDirect          545      8.49%      9.27% # Number of committed branches that were mispredicted. (Count)
system.cpu.branchPred.mispredicted_0::CallIndirect          139      2.17%     11.43% # Number of committed branches that were mispredicted. (Count)
system.cpu.branchPred.mispredicted_0::DirectCond         4830     75.23%     86.67% # Number of committed branches that were mispredicted. (Count)
system.cpu.branchPred.mispredicted_0::DirectUncond          484      7.54%     94.21% # Number of committed branches that were mispredicted. (Count)
system.cpu.branchPred.mispredicted_0::IndirectCond            0      0.00%     94.21% # Number of committed branches that were mispredicted. (Count)
system.cpu.branchPred.mispredicted_0::IndirectUncond          372      5.79%    100.00% # Number of committed branches that were mispredicted. (Count)
system.cpu.branchPred.mispredicted_0::total         6420                       # Number of committed branches that were mispredicted. (Count)
system.cpu.branchPred.mispredictDueToPredictor_0::NoBranch           50      1.50%      1.50% # Number of committed branches that were mispredicted by the predictor. (Count)
system.cpu.branchPred.mispredictDueToPredictor_0::Return            0      0.00%      1.50% # Number of committed branches that were mispredicted by the predictor. (Count)
system.cpu.branchPred.mispredictDueToPredictor_0::CallDirect            1      0.03%      1.53% # Number of committed branches that were mispredicted by the predictor. (Count)
system.cpu.branchPred.mispredictDueToPredictor_0::CallIndirect            0      0.00%      1.53% # Number of committed branches that were mispredicted by the predictor. (Count)
system.cpu.branchPred.mispredictDueToPredictor_0::DirectCond         3202     96.27%     97.81% # Number of committed branches that were mispredicted by the predictor. (Count)
system.cpu.branchPred.mispredictDueToPredictor_0::DirectUncond           73      2.19%    100.00% # Number of committed branches that were mispredicted by the predictor. (Count)
system.cpu.branchPred.mispredictDueToPredictor_0::IndirectCond            0      0.00%    100.00% # Number of committed branches that were mispredicted by the predictor. (Count)
system.cpu.branchPred.mispredictDueToPredictor_0::IndirectUncond            0      0.00%    100.00% # Number of committed branches that were mispredicted by the predictor. (Count)
system.cpu.branchPred.mispredictDueToPredictor_0::total         3326                       # Number of committed branches that were mispredicted by the predictor. (Count)
system.cpu.branchPred.mispredictDueToBTBMiss_0::NoBranch            0      0.00%      0.00% # Number of committed branches that were mispredicted because of a BTB miss. (Count)
system.cpu.branchPred.mispredictDueToBTBMiss_0::Return            0      0.00%      0.00% # Number of committed branches that were mispredicted because of a BTB miss. (Count)
system.cpu.branchPred.mispredictDueToBTBMiss_0::CallDirect          544     17.58%     17.58% # Number of committed branches that were mispredicted because of a BTB miss. (Count)
system.cpu.branchPred.mispredictDueToBTBMiss_0::CallIndirect          139      4.49%     22.07% # Number of committed branches that were mispredicted because of a BTB miss. (Count)
system.cpu.branchPred.mispredictDueToBTBMiss_0::DirectCond         1628     52.62%     74.69% # Number of committed branches that were mispredicted because of a BTB miss. (Count)
system.cpu.branchPred.mispredictDueToBTBMiss_0::DirectUncond          411     13.28%     87.98% # Number of committed branches that were mispredicted because of a BTB miss. (Count)
system.cpu.branchPred.mispredictDueToBTBMiss_0::IndirectCond            0      0.00%     87.98% # Number of committed branches that were mispredicted because of a BTB miss. (Count)
system.cpu.branchPred.mispredictDueToBTBMiss_0::IndirectUncond          372     12.02%    100.00% # Number of committed branches that were mispredicted because of a BTB miss. (Count)
system.cpu.branchPred.mispredictDueToBTBMiss_0::total         3094                       # Number of committed branches that were mispredicted because of a BTB miss. (Count)
system.cpu.branchPred.targetProvider_0::NoTarget        58432     44.93%     44.93% # The component providing the target for taken branches (Count)
system.cpu.branchPred.targetProvider_0::BTB        60561     46.56%     91.49% # The component providing the target for taken branches (Count)
system.cpu.branchPred.targetProvider_0::RAS         7079      5.44%     96.93% # The component providing the target for taken branches (Count)
system.cpu.branchPred.targetProvider_0::Indirect         3992      3.07%    100.00% # The component providing the target for taken branches (Count)
system.cpu.branchPred.targetProvider_0::total       130064                       # The component providing the target for taken branches (Count)
system.cpu.branchPred.targetWrong_0::NoBranch         5686     81.73%     81.73% # Number of branches where the target was incorrect or not available at prediction time. (Count)
system.cpu.branchPred.targetWrong_0::Return         1233     17.72%     99.45% # Number of branches where the target was incorrect or not available at prediction time. (Count)
system.cpu.branchPred.targetWrong_0::CallDirect            5      0.07%     99.53% # Number of branches where the target was incorrect or not available at prediction time. (Count)
system.cpu.branchPred.targetWrong_0::CallIndirect           33      0.47%    100.00% # Number of branches where the target was incorrect or not available at prediction time. (Count)
system.cpu.branchPred.targetWrong_0::DirectCond            0      0.00%    100.00% # Number of branches where the target was incorrect or not available at prediction time. (Count)
system.cpu.branchPred.targetWrong_0::DirectUncond            0      0.00%    100.00% # Number of branches where the target was incorrect or not available at prediction time. (Count)
system.cpu.branchPred.targetWrong_0::IndirectCond            0      0.00%    100.00% # Number of branches where the target was incorrect or not available at prediction time. (Count)
system.cpu.branchPred.targetWrong_0::IndirectUncond            0      0.00%    100.00% # Number of branches where the target was incorrect or not available at prediction time. (Count)
system.cpu.branchPred.targetWrong_0::total         6957                       # Number of branches where the target was incorrect or not available at prediction time. (Count)
system.cpu.branchPred.condPredicted            103101                       # Number of conditional branches predicted (Count)
system.cpu.branchPred.condPredictedTaken        50720                       # Number of conditional branches predicted as taken (Count)
system.cpu.branchPred.condIncorrect              7267                       # Number of conditional branches incorrect (Count)
system.cpu.branchPred.predTakenBTBMiss           2217                       # Number of branches predicted taken but missed in BTB (Count)
system.cpu.branchPred.BTBLookups               130064                       # Number of BTB lookups (Count)
system.cpu.branchPred.BTBUpdates                 5502                       # Number of BTB updates (Count)
system.cpu.branchPred.BTBHits                   78043                       # Number of BTB hits (Count)
system.cpu.branchPred.BTBHitRatio            0.600035                       # BTB Hit Ratio (Ratio)
system.cpu.branchPred.BTBMispredicted            3159                       # Number BTB mispredictions. No target found or target wrong (Count)
system.cpu.branchPred.indirectLookups            5412                       # Number of indirect predictor lookups. (Count)
system.cpu.branchPred.indirectHits               3992                       # Number of indirect target hits. (Count)
system.cpu.branchPred.indirectMisses             1420                       # Number of indirect misses. (Count)
system.cpu.branchPred.indirectMispredicted            0                       # Number of mispredicted indirect branches. (Count)
system.cpu.branchPred.btb.lookups::NoBranch          490      0.38%      0.38% # Number of BTB lookups (Count)
system.cpu.branchPred.btb.lookups::Return         7079      5.44%      5.82% # Number of BTB lookups (Count)
system.cpu.branchPred.btb.lookups::CallDirect         7240      5.57%     11.39% # Number of BTB lookups (Count)
system.cpu.branchPred.btb.lookups::CallIndirect          240      0.18%     11.57% # Number of BTB lookups (Count)
system.cpu.branchPred.btb.lookups::DirectCond       102611     78.89%     90.46% # Number of BTB lookups (Count)
system.cpu.branchPred.btb.lookups::DirectUncond         7232      5.56%     96.02% # Number of BTB lookups (Count)
system.cpu.branchPred.btb.lookups::IndirectCond            0      0.00%     96.02% # Number of BTB lookups (Count)
system.cpu.branchPred.btb.lookups::IndirectUncond         5172      3.98%    100.00% # Number of BTB lookups (Count)
system.cpu.branchPred.btb.lookups::total       130064                       # Number of BTB lookups (Count)
system.cpu.branchPred.btb.misses::NoBranch          173      0.33%      0.33% # Number of BTB misses (Count)
system.cpu.branchPred.btb.misses::Return         7077     13.60%     13.94% # Number of BTB misses (Count)
system.cpu.branchPred.btb.misses::CallDirect          963      1.85%     15.79% # Number of BTB misses (Count)
system.cpu.branchPred.btb.misses::CallIndirect          240      0.46%     16.25% # Number of BTB misses (Count)
system.cpu.branchPred.btb.misses::DirectCond        37561     72.20%     88.45% # Number of BTB misses (Count)
system.cpu.branchPred.btb.misses::DirectUncond          835      1.61%     90.06% # Number of BTB misses (Count)
system.cpu.branchPred.btb.misses::IndirectCond            0      0.00%     90.06% # Number of BTB misses (Count)
system.cpu.branchPred.btb.misses::IndirectUncond         5172      9.94%    100.00% # Number of BTB misses (Count)
system.cpu.branchPred.btb.misses::total         52021                       # Number of BTB misses (Count)
system.cpu.branchPred.btb.updates::NoBranch            0      0.00%      0.00% # Number of BTB updates (Count)
system.cpu.branchPred.btb.updates::Return            0      0.00%      0.00% # Number of BTB updates (Count)
system.cpu.branchPred.btb.updates::CallDirect          727     13.21%     13.21% # Number of BTB updates (Count)
system.cpu.branchPred.btb.updates::CallIndirect            0      0.00%     13.21% # Number of BTB updates (Count)
system.cpu.branchPred.btb.updates::DirectCond         3966     72.08%     85.30% # Number of BTB updates (Count)
system.cpu.branchPred.btb.updates::DirectUncond          809     14.70%    100.00% # Number of BTB updates (Count)
system.cpu.branchPred.btb.updates::IndirectCond            0      0.00%    100.00% # Number of BTB updates (Count)
system.cpu.branchPred.btb.updates::IndirectUncond            0      0.00%    100.00% # Number of BTB updates (Count)
system.cpu.branchPred.btb.updates::total         5502                       # Number of BTB updates (Count)
system.cpu.branchPred.btb.mispredict::NoBranch            0      0.00%      0.00% # Number of BTB mispredictions. No target found or target wrong. (Count)
system.cpu.branchPred.btb.mispredict::Return            0      0.00%      0.00% # Number of BTB mispredictions. No target found or target wrong. (Count)
system.cpu.branchPred.btb.mispredict::CallDirect          727     13.21%     13.21% # Number of BTB mispredictions. No target found or target wrong. (Count)
system.cpu.branchPred.btb.mispredict::CallIndirect            0      0.00%     13.21% # Number of BTB mispredictions. No target found or target wrong. (Count)
system.cpu.branchPred.btb.mispredict::DirectCond         3966     72.08%     85.30% # Number of BTB mispredictions. No target found or target wrong. (Count)
system.cpu.branchPred.btb.mispredict::DirectUncond          809     14.70%    100.00% # Number of BTB mispredictions. No target found or target wrong. (Count)
system.cpu.branchPred.btb.mispredict::IndirectCond            0      0.00%    100.00% # Number of BTB mispredictions. No target found or target wrong. (Count)
system.cpu.branchPred.btb.mispredict::IndirectUncond            0      0.00%    100.00% # Number of BTB mispredictions. No target found or target wrong. (Count)
system.cpu.branchPred.btb.mispredict::total         5502                       # Number of BTB mispredictions. No target found or target wrong. (Count)
system.cpu.branchPred.btb.power_state.pwrStateResidencyTicks::UNDEFINED    496012000                       # Cumulative time (in ticks) in various power states (Tick)
system.cpu.branchPred.indirectBranchPred.lookups         5412                       # Number of lookups (Count)
system.cpu.branchPred.indirectBranchPred.hits         3992                       # Number of hits of a tag (Count)
system.cpu.branchPred.indirectBranchPred.misses         1420                       # Number of misses (Count)
system.cpu.branchPred.indirectBranchPred.targetRecords          551                       # Number of targets that where recorded/installed in the cache (Count)
system.cpu.branchPred.indirectBranchPred.indirectRecords         5963                       # Number of indirect branches/calls recorded in the indirect hist (Count)
system.cpu.branchPred.indirectBranchPred.speculativeOverflows            4                       # Number of times more than the allowed capacity for speculative branches/calls where in flight and destroy the path history (Count)
system.cpu.branchPred.ras.pushes                 8242                       # Number of times a PC was pushed onto the RAS (Count)
system.cpu.branchPred.ras.pops                   8236                       # Number of times a PC was poped from the RAS (Count)
system.cpu.branchPred.ras.squashes               1919                       # Number of times the stack operation was squashed due to wrong speculation. (Count)
system.cpu.branchPred.ras.used                   6317                       # Number of times the RAS is the provider (Count)
system.cpu.branchPred.ras.correct                6317                       # Number of times the RAS is the provider and the prediction is correct (Count)
system.cpu.branchPred.ras.incorrect                 0                       # Number of times the RAS is the provider and the prediction is wrong (Count)
system.cpu.commit.commitSquashedInsts           97828                       # The number of squashed insts skipped by commit (Count)
system.cpu.commit.commitNonSpecStalls             393                       # The number of times commit has been forced to stall to communicate backwards (Count)
system.cpu.commit.branchMispredicts              5862                       # The number of times a branch was mispredicted (Count)
system.cpu.commit.numCommittedDist::samples       823979                       # Number of insts commited each cycle (Count)
system.cpu.commit.numCommittedDist::mean     1.788331                       # Number of insts commited each cycle (Count)
system.cpu.commit.numCommittedDist::stdev     1.736796                       # Number of insts commited each cycle (Count)
system.cpu.commit.numCommittedDist::underflows            0      0.00%      0.00% # Number of insts commited each cycle (Count)
system.cpu.commit.numCommittedDist::0          325624     39.52%     39.52% # Number of insts commited each cycle (Count)
system.cpu.commit.numCommittedDist::1          108175     13.13%     52.65% # Number of insts commited each cycle (Count)
system.cpu.commit.numCommittedDist::2           68534      8.32%     60.96% # Number of insts commited each cycle (Count)
system.cpu.commit.numCommittedDist::3           58280      7.07%     68.04% # Number of insts commited each cycle (Count)
system.cpu.commit.numCommittedDist::4          263366     31.96%    100.00% # Number of insts commited each cycle (Count)
system.cpu.commit.numCommittedDist::overflows            0      0.00%    100.00% # Number of insts commited each cycle (Count)
system.cpu.commit.numCommittedDist::min_value            0                       # Number of insts commited each cycle (Count)
system.cpu.commit.numCommittedDist::max_value            4                       # Number of insts commited each cycle (Count)
system.cpu.commit.numCommittedDist::total       823979                       # Number of insts commited each cycle (Count)
system.cpu.commit.amos                              0                       # Number of atomic instructions committed (Count)
system.cpu.commit.membars                         136                       # Number of memory barriers committed (Count)
system.cpu.commit.functionCalls                  6323                       # Number of function calls committed. (Count)
system.cpu.commit.committedInstType_0::No_OpClass         6080      0.41%      0.41% # Class of committed instruction (Count)
system.cpu.commit.committedInstType_0::IntAlu       828992     56.26%     56.67% # Class of committed instruction (Count)
system.cpu.commit.committedInstType_0::IntMult         1887      0.13%     56.80% # Class of committed instruction (Count)
system.cpu.commit.committedInstType_0::IntDiv         8787      0.60%     57.40% # Class of committed instruction (Count)
system.cpu.commit.committedInstType_0::FloatAdd        72898      4.95%     62.34% # Class of committed instruction (Count)
system.cpu.commit.committedInstType_0::FloatCmp            0      0.00%     62.34% # Class of committed instruction (Count)
system.cpu.commit.committedInstType_0::FloatCvt          336      0.02%     62.37% # Class of committed instruction (Count)
system.cpu.commit.committedInstType_0::FloatMult            0      0.00%     62.37% # Class of committed instruction (Count)
system.cpu.commit.committedInstType_0::FloatMultAcc            0      0.00%     62.37% # Class of committed instruction (Count)
system.cpu.commit.committedInstType_0::FloatDiv            0      0.00%     62.37% # Class of committed instruction (Count)
system.cpu.commit.committedInstType_0::FloatMisc            0      0.00%     62.37% # Class of committed instruction (Count)
system.cpu.commit.committedInstType_0::FloatSqrt            0      0.00%     62.37% # Class of committed instruction (Count)
system.cpu.commit.committedInstType_0::SimdAdd          656      0.04%     62.41% # Class of committed instruction (Count)
system.cpu.commit.committedInstType_0::SimdAddAcc            0      0.00%     62.41% # Class of committed instruction (Count)
system.cpu.commit.committedInstType_0::SimdAlu        22822      1.55%     63.96% # Class of committed instruction (Count)
system.cpu.commit.committedInstType_0::SimdCmp           14      0.00%     63.96% # Class of committed instruction (Count)
system.cpu.commit.committedInstType_0::SimdCvt         1790      0.12%     64.08% # Class of committed instruction (Count)
system.cpu.commit.committedInstType_0::SimdMisc         7523      0.51%     64.59% # Class of committed instruction (Count)
system.cpu.commit.committedInstType_0::SimdMult            0      0.00%     64.59% # Class of committed instruction (Count)
system.cpu.commit.committedInstType_0::SimdMultAcc            0      0.00%     64.59% # Class of committed instruction (Count)
system.cpu.commit.committedInstType_0::SimdMatMultAcc            0      0.00%     64.59% # Class of committed instruction (Count)
system.cpu.commit.committedInstType_0::SimdShift          410      0.03%     64.62% # Class of committed instruction (Count)
system.cpu.commit.committedInstType_0::SimdShiftAcc            0      0.00%     64.62% # Class of committed instruction (Count)
system.cpu.commit.committedInstType_0::SimdDiv            0      0.00%     64.62% # Class of committed instruction (Count)
system.cpu.commit.committedInstType_0::SimdSqrt            0      0.00%     64.62% # Class of committed instruction (Count)
system.cpu.commit.committedInstType_0::SimdFloatAdd       115517      7.84%     72.46% # Class of committed instruction (Count)
system.cpu.commit.committedInstType_0::SimdFloatAlu            0      0.00%     72.46% # Class of committed instruction (Count)
system.cpu.commit.committedInstType_0::SimdFloatCmp         8022      0.54%     73.00% # Class of committed instruction (Count)
system.cpu.commit.committedInstType_0::SimdFloatCvt         2529      0.17%     73.17% # Class of committed instruction (Count)
system.cpu.commit.committedInstType_0::SimdFloatDiv         8112      0.55%     73.73% # Class of committed instruction (Count)
system.cpu.commit.committedInstType_0::SimdFloatMisc            0      0.00%     73.73% # Class of committed instruction (Count)
system.cpu.commit.committedInstType_0::SimdFloatMult        43465      2.95%     76.67% # Class of committed instruction (Count)
system.cpu.commit.committedInstType_0::SimdFloatMultAcc            0      0.00%     76.67% # Class of committed instruction (Count)
system.cpu.commit.committedInstType_0::SimdFloatMatMultAcc            0      0.00%     76.67% # Class of committed instruction (Count)
system.cpu.commit.committedInstType_0::SimdFloatSqrt            1      0.00%     76.67% # Class of committed instruction (Count)
system.cpu.commit.committedInstType_0::SimdReduceAdd            0      0.00%     76.67% # Class of committed instruction (Count)
system.cpu.commit.committedInstType_0::SimdReduceAlu            0      0.00%     76.67% # Class of committed instruction (Count)
system.cpu.commit.committedInstType_0::SimdReduceCmp            0      0.00%     76.67% # Class of committed instruction (Count)
system.cpu.commit.committedInstType_0::SimdFloatReduceAdd            0      0.00%     76.67% # Class of committed instruction (Count)
system.cpu.commit.committedInstType_0::SimdFloatReduceCmp            0      0.00%     76.67% # Class of committed instruction (Count)
system.cpu.commit.committedInstType_0::SimdAes            0      0.00%     76.67% # Class of committed instruction (Count)
system.cpu.commit.committedInstType_0::SimdAesMix            0      0.00%     76.67% # Class of committed instruction (Count)
system.cpu.commit.committedInstType_0::SimdSha1Hash            0      0.00%     76.67% # Class of committed instruction (Count)
system.cpu.commit.committedInstType_0::SimdSha1Hash2            0      0.00%     76.67% # Class of committed instruction (Count)
system.cpu.commit.committedInstType_0::SimdSha256Hash            0      0.00%     76.67% # Class of committed instruction (Count)
system.cpu.commit.committedInstType_0::SimdSha256Hash2            0      0.00%     76.67% # Class of committed instruction (Count)
system.cpu.commit.committedInstType_0::SimdShaSigma2            0      0.00%     76.67% # Class of committed instruction (Count)
system.cpu.commit.committedInstType_0::SimdShaSigma3            0      0.00%     76.67% # Class of committed instruction (Count)
system.cpu.commit.committedInstType_0::SimdPredAlu            0      0.00%     76.67% # Class of committed instruction (Count)
system.cpu.commit.committedInstType_0::Matrix            0      0.00%     76.67% # Class of committed instruction (Count)
system.cpu.commit.committedInstType_0::MatrixMov            0      0.00%     76.67% # Class of committed instruction (Count)
system.cpu.commit.committedInstType_0::MatrixOP            0      0.00%     76.67% # Class of committed instruction (Count)
system.cpu.commit.committedInstType_0::MemRead       130708      8.87%     85.55% # Class of committed instruction (Count)
system.cpu.commit.committedInstType_0::MemWrite        45229      3.07%     88.61% # Class of committed instruction (Count)
system.cpu.commit.committedInstType_0::FloatMemRead       130734      8.87%     97.49% # Class of committed instruction (Count)
system.cpu.commit.committedInstType_0::FloatMemWrite        37035      2.51%    100.00% # Class of committed instruction (Count)
system.cpu.commit.committedInstType_0::IprAccess            0      0.00%    100.00% # Class of committed instruction (Count)
system.cpu.commit.committedInstType_0::InstPrefetch            0      0.00%    100.00% # Class of committed instruction (Count)
system.cpu.commit.committedInstType_0::SimdUnitStrideLoad            0      0.00%    100.00% # Class of committed instruction (Count)
system.cpu.commit.committedInstType_0::SimdUnitStrideStore            0      0.00%    100.00% # Class of committed instruction (Count)
system.cpu.commit.committedInstType_0::SimdUnitStrideMaskLoad            0      0.00%    100.00% # Class of committed instruction (Count)
system.cpu.commit.committedInstType_0::SimdUnitStrideMaskStore            0      0.00%    100.00% # Class of committed instruction (Count)
system.cpu.commit.committedInstType_0::SimdStridedLoad            0      0.00%    100.00% # Class of committed instruction (Count)
system.cpu.commit.committedInstType_0::SimdStridedStore            0      0.00%    100.00% # Class of committed instruction (Count)
system.cpu.commit.committedInstType_0::SimdIndexedLoad            0      0.00%    100.00% # Class of committed instruction (Count)
system.cpu.commit.committedInstType_0::SimdIndexedStore            0      0.00%    100.00% # Class of committed instruction (Count)
system.cpu.commit.committedInstType_0::SimdWholeRegisterLoad            0      0.00%    100.00% # Class of committed instruction (Count)
system.cpu.commit.committedInstType_0::SimdWholeRegisterStore            0      0.00%    100.00% # Class of committed instruction (Count)
system.cpu.commit.committedInstType_0::SimdUnitStrideFaultOnlyFirstLoad            0      0.00%    100.00% # Class of committed instruction (Count)
system.cpu.commit.committedInstType_0::SimdUnitStrideSegmentedLoad            0      0.00%    100.00% # Class of committed instruction (Count)
system.cpu.commit.committedInstType_0::SimdUnitStrideSegmentedStore            0      0.00%    100.00% # Class of committed instruction (Count)
system.cpu.commit.committedInstType_0::SimdExt            0      0.00%    100.00% # Class of committed instruction (Count)
system.cpu.commit.committedInstType_0::SimdFloatExt            0      0.00%    100.00% # Class of committed instruction (Count)
system.cpu.commit.committedInstType_0::SimdConfig            0      0.00%    100.00% # Class of committed instruction (Count)
system.cpu.commit.committedInstType_0::total      1473547                       # Class of committed instruction (Count)
system.cpu.commit.commitEligibleSamples        263366                       # number cycles where commit BW limit reached (Cycle)
system.cpu.commitStats0.numInsts               809878                       # Number of instructions committed (thread level) (Count)
system.cpu.commitStats0.numOps                1473547                       # Number of ops (including micro ops) committed (thread level) (Count)
system.cpu.commitStats0.numInstsNotNOP         809878                       # Number of instructions committed excluding NOPs or prefetches (Count)
system.cpu.commitStats0.numOpsNotNOP          1473547                       # Number of Ops (including micro ops) Simulated (Count)
system.cpu.commitStats0.cpi                  1.224907                       # CPI: cycles per instruction (thread level) ((Cycle/Count))
system.cpu.commitStats0.ipc                  0.816389                       # IPC: instructions per cycle (thread level) ((Count/Cycle))
system.cpu.commitStats0.numMemRefs             343706                       # Number of memory references committed (Count)
system.cpu.commitStats0.numFpInsts             509408                       # Number of float instructions (Count)
system.cpu.commitStats0.numIntInsts           1128236                       # Number of integer instructions (Count)
system.cpu.commitStats0.numLoadInsts           261442                       # Number of load instructions (Count)
system.cpu.commitStats0.numStoreInsts           82264                       # Number of store instructions (Count)
system.cpu.commitStats0.numVecInsts                 0                       # Number of vector instructions (Count)
system.cpu.commitStats0.committedInstType::No_OpClass         6080      0.41%      0.41% # Class of committed instruction. (Count)
system.cpu.commitStats0.committedInstType::IntAlu       828992     56.26%     56.67% # Class of committed instruction. (Count)
system.cpu.commitStats0.committedInstType::IntMult         1887      0.13%     56.80% # Class of committed instruction. (Count)
system.cpu.commitStats0.committedInstType::IntDiv         8787      0.60%     57.40% # Class of committed instruction. (Count)
system.cpu.commitStats0.committedInstType::FloatAdd        72898      4.95%     62.34% # Class of committed instruction. (Count)
system.cpu.commitStats0.committedInstType::FloatCmp            0      0.00%     62.34% # Class of committed instruction. (Count)
system.cpu.commitStats0.committedInstType::FloatCvt          336      0.02%     62.37% # Class of committed instruction. (Count)
system.cpu.commitStats0.committedInstType::FloatMult            0      0.00%     62.37% # Class of committed instruction. (Count)
system.cpu.commitStats0.committedInstType::FloatMultAcc            0      0.00%     62.37% # Class of committed instruction. (Count)
system.cpu.commitStats0.committedInstType::FloatDiv            0      0.00%     62.37% # Class of committed instruction. (Count)
system.cpu.commitStats0.committedInstType::FloatMisc            0      0.00%     62.37% # Class of committed instruction. (Count)
system.cpu.commitStats0.committedInstType::FloatSqrt            0      0.00%     62.37% # Class of committed instruction. (Count)
system.cpu.commitStats0.committedInstType::SimdAdd          656      0.04%     62.41% # Class of committed instruction. (Count)
system.cpu.commitStats0.committedInstType::SimdAddAcc            0      0.00%     62.41% # Class of committed instruction. (Count)
system.cpu.commitStats0.committedInstType::SimdAlu        22822      1.55%     63.96% # Class of committed instruction. (Count)
system.cpu.commitStats0.committedInstType::SimdCmp           14      0.00%     63.96% # Class of committed instruction. (Count)
system.cpu.commitStats0.committedInstType::SimdCvt         1790      0.12%     64.08% # Class of committed instruction. (Count)
system.cpu.commitStats0.committedInstType::SimdMisc         7523      0.51%     64.59% # Class of committed instruction. (Count)
system.cpu.commitStats0.committedInstType::SimdMult            0      0.00%     64.59% # Class of committed instruction. (Count)
system.cpu.commitStats0.committedInstType::SimdMultAcc            0      0.00%     64.59% # Class of committed instruction. (Count)
system.cpu.commitStats0.committedInstType::SimdMatMultAcc            0      0.00%     64.59% # Class of committed instruction. (Count)
system.cpu.commitStats0.committedInstType::SimdShift          410      0.03%     64.62% # Class of committed instruction. (Count)
system.cpu.commitStats0.committedInstType::SimdShiftAcc            0      0.00%     64.62% # Class of committed instruction. (Count)
system.cpu.commitStats0.committedInstType::SimdDiv            0      0.00%     64.62% # Class of committed instruction. (Count)
system.cpu.commitStats0.committedInstType::SimdSqrt            0      0.00%     64.62% # Class of committed instruction. (Count)
system.cpu.commitStats0.committedInstType::SimdFloatAdd       115517      7.84%     72.46% # Class of committed instruction. (Count)
system.cpu.commitStats0.committedInstType::SimdFloatAlu            0      0.00%     72.46% # Class of committed instruction. (Count)
system.cpu.commitStats0.committedInstType::SimdFloatCmp         8022      0.54%     73.00% # Class of committed instruction. (Count)
system.cpu.commitStats0.committedInstType::SimdFloatCvt         2529      0.17%     73.17% # Class of committed instruction. (Count)
system.cpu.commitStats0.committedInstType::SimdFloatDiv         8112      0.55%     73.73% # Class of committed instruction. (Count)
system.cpu.commitStats0.committedInstType::SimdFloatMisc            0      0.00%     73.73% # Class of committed instruction. (Count)
system.cpu.commitStats0.committedInstType::SimdFloatMult        43465      2.95%     76.67% # Class of committed instruction. (Count)
system.cpu.commitStats0.committedInstType::SimdFloatMultAcc            0      0.00%     76.67% # Class of committed instruction. (Count)
system.cpu.commitStats0.committedInstType::SimdFloatMatMultAcc            0      0.00%     76.67% # Class of committed instruction. (Count)
system.cpu.commitStats0.committedInstType::SimdFloatSqrt            1      0.00%     76.67% # Class of committed instruction. (Count)
system.cpu.commitStats0.committedInstType::SimdReduceAdd            0      0.00%     76.67% # Class of committed instruction. (Count)
system.cpu.commitStats0.committedInstType::SimdReduceAlu            0      0.00%     76.67% # Class of committed instruction. (Count)
system.cpu.commitStats0.committedInstType::SimdReduceCmp            0      0.00%     76.67% # Class of committed instruction. (Count)
system.cpu.commitStats0.committedInstType::SimdFloatReduceAdd            0      0.00%     76.67% # Class of committed instruction. (Count)
system.cpu.commitStats0.committedInstType::SimdFloatReduceCmp            0      0.00%     76.67% # Class of committed instruction. (Count)
system.cpu.commitStats0.committedInstType::SimdAes            0      0.00%     76.67% # Class of committed instruction. (Count)
system.cpu.commitStats0.committedInstType::SimdAesMix            0      0.00%     76.67% # Class of committed instruction. (Count)
system.cpu.commitStats0.committedInstType::SimdSha1Hash            0      0.00%     76.67% # Class of committed instruction. (Count)
system.cpu.commitStats0.committedInstType::SimdSha1Hash2            0      0.00%     76.67% # Class of committed instruction. (Count)
system.cpu.commitStats0.committedInstType::SimdSha256Hash            0      0.00%     76.67% # Class of committed instruction. (Count)
system.cpu.commitStats0.committedInstType::SimdSha256Hash2            0      0.00%     76.67% # Class of committed instruction. (Count)
system.cpu.commitStats0.committedInstType::SimdShaSigma2            0      0.00%     76.67% # Class of committed instruction. (Count)
system.cpu.commitStats0.committedInstType::SimdShaSigma3            0      0.00%     76.67% # Class of committed instruction. (Count)
system.cpu.commitStats0.committedInstType::SimdPredAlu            0      0.00%     76.67% # Class of committed instruction. (Count)
system.cpu.commitStats0.committedInstType::Matrix            0      0.00%     76.67% # Class of committed instruction. (Count)
system.cpu.commitStats0.committedInstType::MatrixMov            0      0.00%     76.67% # Class of committed instruction. (Count)
system.cpu.commitStats0.committedInstType::MatrixOP            0      0.00%     76.67% # Class of committed instruction. (Count)
system.cpu.commitStats0.committedInstType::MemRead       130708      8.87%     85.55% # Class of committed instruction. (Count)
system.cpu.commitStats0.committedInstType::MemWrite        45229      3.07%     88.61% # Class of committed instruction. (Count)
system.cpu.commitStats0.committedInstType::FloatMemRead       130734      8.87%     97.49% # Class of committed instruction. (Count)
system.cpu.commitStats0.committedInstType::FloatMemWrite        37035      2.51%    100.00% # Class of committed instruction. (Count)
system.cpu.commitStats0.committedInstType::IprAccess            0      0.00%    100.00% # Class of committed instruction. (Count)
system.cpu.commitStats0.committedInstType::InstPrefetch            0      0.00%    100.00% # Class of committed instruction. (Count)
system.cpu.commitStats0.committedInstType::SimdUnitStrideLoad            0      0.00%    100.00% # Class of committed instruction. (Count)
system.cpu.commitStats0.committedInstType::SimdUnitStrideStore            0      0.00%    100.00% # Class of committed instruction. (Count)
system.cpu.commitStats0.committedInstType::SimdUnitStrideMaskLoad            0      0.00%    100.00% # Class of committed instruction. (Count)
system.cpu.commitStats0.committedInstType::SimdUnitStrideMaskStore            0      0.00%    100.00% # Class of committed instruction. (Count)
system.cpu.commitStats0.committedInstType::SimdStridedLoad            0      0.00%    100.00% # Class of committed instruction. (Count)
system.cpu.commitStats0.committedInstType::SimdStridedStore            0      0.00%    100.00% # Class of committed instruction. (Count)
system.cpu.commitStats0.committedInstType::SimdIndexedLoad            0      0.00%    100.00% # Class of committed instruction. (Count)
system.cpu.commitStats0.committedInstType::SimdIndexedStore            0      0.00%    100.00% # Class of committed instruction. (Count)
system.cpu.commitStats0.committedInstType::SimdWholeRegisterLoad            0      0.00%    100.00% # Class of committed instruction. (Count)
system.cpu.commitStats0.committedInstType::SimdWholeRegisterStore            0      0.00%    100.00% # Class of committed instruction. (Count)
system.cpu.commitStats0.committedInstType::SimdUnitStrideFaultOnlyFirstLoad            0      0.00%    100.00% # Class of committed instruction. (Count)
system.cpu.commitStats0.committedInstType::SimdUnitStrideSegmentedLoad            0      0.00%    100.00% # Class of committed instruction. (Count)
system.cpu.commitStats0.committedInstType::SimdUnitStrideSegmentedStore            0      0.00%    100.00% # Class of committed instruction. (Count)
system.cpu.commitStats0.committedInstType::SimdExt            0      0.00%    100.00% # Class of committed instruction. (Count)
system.cpu.commitStats0.committedInstType::SimdFloatExt            0      0.00%    100.00% # Class of committed instruction. (Count)
system.cpu.commitStats0.committedInstType::SimdConfig            0      0.00%    100.00% # Class of committed instruction. (Count)
system.cpu.commitStats0.committedInstType::total      1473547                       # Class of committed instruction. (Count)
system.cpu.commitStats0.committedControl::IsControl       112158                       # Class of control type instructions committed (Count)
system.cpu.commitStats0.committedControl::IsDirectControl       101423                       # Class of control type instructions committed (Count)
system.cpu.commitStats0.committedControl::IsIndirectControl        10685                       # Class of control type instructions committed (Count)
system.cpu.commitStats0.committedControl::IsCondControl        89644                       # Class of control type instructions committed (Count)
system.cpu.commitStats0.committedControl::IsUncondControl        22464                       # Class of control type instructions committed (Count)
system.cpu.commitStats0.committedControl::IsCall         6323                       # Class of control type instructions committed (Count)
system.cpu.commitStats0.committedControl::IsReturn         6317                       # Class of control type instructions committed (Count)
system.cpu.dcache.demandHits::cpu.data         332554                       # number of demand (read+write) hits (Count)
system.cpu.dcache.demandHits::total            332554                       # number of demand (read+write) hits (Count)
system.cpu.dcache.overallHits::cpu.data        332554                       # number of overall hits (Count)
system.cpu.dcache.overallHits::total           332554                       # number of overall hits (Count)
system.cpu.dcache.demandMisses::cpu.data        16059                       # number of demand (read+write) misses (Count)
system.cpu.dcache.demandMisses::total           16059                       # number of demand (read+write) misses (Count)
system.cpu.dcache.overallMisses::cpu.data        16059                       # number of overall misses (Count)
system.cpu.dcache.overallMisses::total          16059                       # number of overall misses (Count)
system.cpu.dcache.demandMissLatency::cpu.data    305891997                       # number of demand (read+write) miss ticks (Tick)
system.cpu.dcache.demandMissLatency::total    305891997                       # number of demand (read+write) miss ticks (Tick)
system.cpu.dcache.overallMissLatency::cpu.data    305891997                       # number of overall miss ticks (Tick)
system.cpu.dcache.overallMissLatency::total    305891997                       # number of overall miss ticks (Tick)
[...]
system.mem_ctrl.requestorReadAvgLat::cpu.inst     24898.02                       # Per-requestor read average memory access latency ((Tick/Count))
system.mem_ctrl.requestorReadAvgLat::cpu.data     27822.87                       # Per-requestor read average memory access latency ((Tick/Count))
system.mem_ctrl.dram.bytesRead::cpu.inst       163328                       # Number of bytes read from this memory (Byte)
system.mem_ctrl.dram.bytesRead::cpu.data       135040                       # Number of bytes read from this memory (Byte)
system.mem_ctrl.dram.bytesRead::total          298368                       # Number of bytes read from this memory (Byte)
system.mem_ctrl.dram.bytesInstRead::cpu.inst       163328                       # Number of instructions bytes read from this memory (Byte)
system.mem_ctrl.dram.bytesInstRead::total       163328                       # Number of instructions bytes read from this memory (Byte)
system.mem_ctrl.dram.numReads::cpu.inst          2552                       # Number of read requests responded to by this memory (Count)
system.mem_ctrl.dram.numReads::cpu.data          2110                       # Number of read requests responded to by this memory (Count)
system.mem_ctrl.dram.numReads::total             4662                       # Number of read requests responded to by this memory (Count)
system.mem_ctrl.dram.bwRead::cpu.inst       329282356                       # Total read bandwidth from this memory ((Byte/Second))
system.mem_ctrl.dram.bwRead::cpu.data       272251478                       # Total read bandwidth from this memory ((Byte/Second))
system.mem_ctrl.dram.bwRead::total          601533834                       # Total read bandwidth from this memory ((Byte/Second))
system.mem_ctrl.dram.bwInstRead::cpu.inst    329282356                       # Instruction read bandwidth from this memory ((Byte/Second))
system.mem_ctrl.dram.bwInstRead::total      329282356                       # Instruction read bandwidth from this memory ((Byte/Second))
system.mem_ctrl.dram.bwTotal::cpu.inst      329282356                       # Total bandwidth to/from this memory ((Byte/Second))
system.mem_ctrl.dram.bwTotal::cpu.data      272251478                       # Total bandwidth to/from this memory ((Byte/Second))
system.mem_ctrl.dram.bwTotal::total         601533834                       # Total bandwidth to/from this memory ((Byte/Second))
system.mem_ctrl.dram.readBursts                  4662                       # Number of DRAM read bursts (Count)
system.mem_ctrl.dram.writeBursts                    0                       # Number of DRAM write bursts (Count)
system.mem_ctrl.dram.perBankRdBursts::0           436                       # Per bank write bursts (Count)
system.mem_ctrl.dram.perBankRdBursts::1           405                       # Per bank write bursts (Count)
system.mem_ctrl.dram.perBankRdBursts::2           440                       # Per bank write bursts (Count)
system.mem_ctrl.dram.perBankRdBursts::3           350                       # Per bank write bursts (Count)
system.mem_ctrl.dram.perBankRdBursts::4           384                       # Per bank write bursts (Count)
system.mem_ctrl.dram.perBankRdBursts::5           429                       # Per bank write bursts (Count)
system.mem_ctrl.dram.perBankRdBursts::6           222                       # Per bank write bursts (Count)
system.mem_ctrl.dram.perBankRdBursts::7           345                       # Per bank write bursts (Count)
system.mem_ctrl.dram.perBankRdBursts::8           239                       # Per bank write bursts (Count)
system.mem_ctrl.dram.perBankRdBursts::9           143                       # Per bank write bursts (Count)
system.mem_ctrl.dram.perBankRdBursts::10          266                       # Per bank write bursts (Count)
system.mem_ctrl.dram.perBankRdBursts::11          187                       # Per bank write bursts (Count)
system.mem_ctrl.dram.perBankRdBursts::12          160                       # Per bank write bursts (Count)
system.mem_ctrl.dram.perBankRdBursts::13          170                       # Per bank write bursts (Count)
system.mem_ctrl.dram.perBankRdBursts::14          283                       # Per bank write bursts (Count)
system.mem_ctrl.dram.perBankRdBursts::15          203                       # Per bank write bursts (Count)
system.mem_ctrl.dram.perBankWrBursts::0             0                       # Per bank write bursts (Count)
system.mem_ctrl.dram.perBankWrBursts::1             0                       # Per bank write bursts (Count)
system.mem_ctrl.dram.perBankWrBursts::2             0                       # Per bank write bursts (Count)
system.mem_ctrl.dram.perBankWrBursts::3             0                       # Per bank write bursts (Count)
system.mem_ctrl.dram.perBankWrBursts::4             0                       # Per bank write bursts (Count)
system.mem_ctrl.dram.perBankWrBursts::5             0                       # Per bank write bursts (Count)
system.mem_ctrl.dram.perBankWrBursts::6             0                       # Per bank write bursts (Count)
system.mem_ctrl.dram.perBankWrBursts::7             0                       # Per bank write bursts (Count)
system.mem_ctrl.dram.perBankWrBursts::8             0                       # Per bank write bursts (Count)
system.mem_ctrl.dram.perBankWrBursts::9             0                       # Per bank write bursts (Count)
system.mem_ctrl.dram.perBankWrBursts::10            0                       # Per bank write bursts (Count)
system.mem_ctrl.dram.perBankWrBursts::11            0                       # Per bank write bursts (Count)
system.mem_ctrl.dram.perBankWrBursts::12            0                       # Per bank write bursts (Count)
system.mem_ctrl.dram.perBankWrBursts::13            0                       # Per bank write bursts (Count)
system.mem_ctrl.dram.perBankWrBursts::14            0                       # Per bank write bursts (Count)
system.mem_ctrl.dram.perBankWrBursts::15            0                       # Per bank write bursts (Count)
system.mem_ctrl.dram.totQLat                 34833500                       # Total ticks spent queuing (Tick)
system.mem_ctrl.dram.totBusLat               23310000                       # Total ticks spent in databus transfers (Tick)
system.mem_ctrl.dram.totMemAccLat           122246000                       # Total ticks spent from burst creation until serviced by the DRAM (Tick)
system.mem_ctrl.dram.avgQLat                  7471.79                       # Average queueing delay per DRAM burst ((Tick/Count))
system.mem_ctrl.dram.avgBusLat                5000.00                       # Average bus latency per DRAM burst ((Tick/Count))
system.mem_ctrl.dram.avgMemAccLat            26221.79                       # Average memory access latency per DRAM burst ((Tick/Count))
system.mem_ctrl.dram.readRowHits                 3733                       # Number of row buffer hits during reads (Count)
system.mem_ctrl.dram.writeRowHits                   0                       # Number of row buffer hits during writes (Count)
system.mem_ctrl.dram.readRowHitRate             80.07                       # Row buffer hit rate for reads (Ratio)
system.mem_ctrl.dram.writeRowHitRate              nan                       # Row buffer hit rate for writes (Ratio)
system.mem_ctrl.dram.bytesPerActivate::samples          918                       # Bytes accessed per row activation (Byte)
system.mem_ctrl.dram.bytesPerActivate::mean   323.764706                       # Bytes accessed per row activation (Byte)
system.mem_ctrl.dram.bytesPerActivate::gmean   193.554516                       # Bytes accessed per row activation (Byte)
system.mem_ctrl.dram.bytesPerActivate::stdev   327.545149                       # Bytes accessed per row activation (Byte)
system.mem_ctrl.dram.bytesPerActivate::0-127          321     34.97%     34.97% # Bytes accessed per row activation (Byte)
system.mem_ctrl.dram.bytesPerActivate::128-255          216     23.53%     58.50% # Bytes accessed per row activation (Byte)
system.mem_ctrl.dram.bytesPerActivate::256-383           96     10.46%     68.95% # Bytes accessed per row activation (Byte)
system.mem_ctrl.dram.bytesPerActivate::384-511           51      5.56%     74.51% # Bytes accessed per row activation (Byte)
system.mem_ctrl.dram.bytesPerActivate::512-639           50      5.45%     79.96% # Bytes accessed per row activation (Byte)
system.mem_ctrl.dram.bytesPerActivate::640-767           34      3.70%     83.66% # Bytes accessed per row activation (Byte)
system.mem_ctrl.dram.bytesPerActivate::768-895           29      3.16%     86.82% # Bytes accessed per row activation (Byte)
system.mem_ctrl.dram.bytesPerActivate::896-1023           21      2.29%     89.11% # Bytes accessed per row activation (Byte)
system.mem_ctrl.dram.bytesPerActivate::1024-1151          100     10.89%    100.00% # Bytes accessed per row activation (Byte)
system.mem_ctrl.dram.bytesPerActivate::total          918                       # Bytes accessed per row activation (Byte)
system.mem_ctrl.dram.dramBytesRead             298368                       # Total bytes read (Byte)
system.mem_ctrl.dram.dramBytesWritten               0                       # Total bytes written (Byte)
system.mem_ctrl.dram.avgRdBW               601.533834                       # Average DRAM read bandwidth in MiBytes/s ((Byte/Second))
system.mem_ctrl.dram.avgWrBW                        0                       # Average DRAM write bandwidth in MiBytes/s ((Byte/Second))
system.mem_ctrl.dram.peakBW                  12800.00                       # Theoretical peak bandwidth in MiByte/s ((Byte/Second))
system.mem_ctrl.dram.busUtil                     4.70                       # Data bus utilization in percentage (Ratio)
system.mem_ctrl.dram.busUtilRead                 4.70                       # Data bus utilization in percentage for reads (Ratio)
system.mem_ctrl.dram.busUtilWrite                0.00                       # Data bus utilization in percentage for writes (Ratio)
system.mem_ctrl.dram.pageHitRate                80.07                       # Row buffer hit rate, read and write combined (Ratio)
system.mem_ctrl.dram.power_state.pwrStateResidencyTicks::UNDEFINED    496012000                       # Cumulative time (in ticks) in various power states (Tick)
system.mem_ctrl.dram.rank0.actEnergy          3827040                       # Energy for activate commands per rank (pJ) (Joule)
system.mem_ctrl.dram.rank0.preEnergy          2011350                       # Energy for precharge commands per rank (pJ) (Joule)
system.mem_ctrl.dram.rank0.readEnergy        21498540                       # Energy for read commands per rank (pJ) (Joule)
system.mem_ctrl.dram.rank0.writeEnergy              0                       # Energy for write commands per rank (pJ) (Joule)
system.mem_ctrl.dram.rank0.refreshEnergy 38722320.000000                       # Energy for refresh commands per rank (pJ) (Joule)
system.mem_ctrl.dram.rank0.actBackEnergy    139000770                       # Energy for active background per rank (pJ) (Joule)
system.mem_ctrl.dram.rank0.preBackEnergy     73415520                       # Energy for precharge background per rank (pJ) (Joule)
system.mem_ctrl.dram.rank0.actPowerDownEnergy            0                       # Energy for active power-down per rank (pJ) (Joule)
system.mem_ctrl.dram.rank0.prePowerDownEnergy            0                       # Energy for precharge power-down per rank (pJ) (Joule)
system.mem_ctrl.dram.rank0.selfRefreshEnergy            0                       # Energy for self refresh per rank (pJ) (Joule)
system.mem_ctrl.dram.rank0.totalEnergy      278475540                       # Total energy per rank (pJ) (Joule)
system.mem_ctrl.dram.rank0.averagePower    561.429038                       # Core power per rank (mW) (Watt)
system.mem_ctrl.dram.rank0.totalIdleTime            0                       # Total Idle time Per DRAM Rank (Tick)
system.mem_ctrl.dram.rank0.pwrStateTime::IDLE    189408500                       # Time in different power states (Tick)
system.mem_ctrl.dram.rank0.pwrStateTime::REF     16380000                       # Time in different power states (Tick)
system.mem_ctrl.dram.rank0.pwrStateTime::SREF            0                       # Time in different power states (Tick)
system.mem_ctrl.dram.rank0.pwrStateTime::PRE_PDN            0                       # Time in different power states (Tick)
system.mem_ctrl.dram.rank0.pwrStateTime::ACT    290223500                       # Time in different power states (Tick)
system.mem_ctrl.dram.rank0.pwrStateTime::ACT_PDN            0                       # Time in different power states (Tick)
system.mem_ctrl.dram.rank1.actEnergy          2806020                       # Energy for activate commands per rank (pJ) (Joule)
system.mem_ctrl.dram.rank1.preEnergy          1472460                       # Energy for precharge commands per rank (pJ) (Joule)
system.mem_ctrl.dram.rank1.readEnergy        11788140                       # Energy for read commands per rank (pJ) (Joule)
system.mem_ctrl.dram.rank1.writeEnergy              0                       # Energy for write commands per rank (pJ) (Joule)
system.mem_ctrl.dram.rank1.refreshEnergy 38722320.000000                       # Energy for refresh commands per rank (pJ) (Joule)
system.mem_ctrl.dram.rank1.actBackEnergy    106039950                       # Energy for active background per rank (pJ) (Joule)
system.mem_ctrl.dram.rank1.preBackEnergy    101172000                       # Energy for precharge background per rank (pJ) (Joule)
system.mem_ctrl.dram.rank1.actPowerDownEnergy            0                       # Energy for active power-down per rank (pJ) (Joule)
system.mem_ctrl.dram.rank1.prePowerDownEnergy            0                       # Energy for precharge power-down per rank (pJ) (Joule)
system.mem_ctrl.dram.rank1.selfRefreshEnergy            0                       # Energy for self refresh per rank (pJ) (Joule)
system.mem_ctrl.dram.rank1.totalEnergy      262000890                       # Total energy per rank (pJ) (Joule)
system.mem_ctrl.dram.rank1.averagePower    528.214821                       # Core power per rank (mW) (Watt)
system.mem_ctrl.dram.rank1.totalIdleTime            0                       # Total Idle time Per DRAM Rank (Tick)
system.mem_ctrl.dram.rank1.pwrStateTime::IDLE    262089000                       # Time in different power states (Tick)
system.mem_ctrl.dram.rank1.pwrStateTime::REF     16380000                       # Time in different power states (Tick)
system.mem_ctrl.dram.rank1.pwrStateTime::SREF            0                       # Time in different power states (Tick)
system.mem_ctrl.dram.rank1.pwrStateTime::PRE_PDN            0                       # Time in different power states (Tick)
system.mem_ctrl.dram.rank1.pwrStateTime::ACT    217543000                       # Time in different power states (Tick)
system.mem_ctrl.dram.rank1.pwrStateTime::ACT_PDN            0                       # Time in different power states (Tick)
system.mem_ctrl.power_state.pwrStateResidencyTicks::UNDEFINED    496012000                       # Cumulative time (in ticks) in various power states (Tick)
system.membus.transDist::ReadResp                3847                       # Transaction distribution (Count)
system.membus.transDist::ReadExReq                815                       # Transaction distribution (Count)
system.membus.transDist::ReadExResp               815                       # Transaction distribution (Count)
system.membus.transDist::ReadSharedReq           3847                       # Transaction distribution (Count)
system.membus.pktCount_system.l2cache.mem_side_port::system.mem_ctrl.port         9324                       # Packet count per connected requestor and responder (Count)
system.membus.pktCount_system.l2cache.mem_side_port::total         9324                       # Packet count per connected requestor and responder (Count)
system.membus.pktCount::total                    9324                       # Packet count per connected requestor and responder (Count)
system.membus.pktSize_system.l2cache.mem_side_port::system.mem_ctrl.port       298368                       # Cumulative packet size per connected requestor and responder (Byte)
system.membus.pktSize_system.l2cache.mem_side_port::total       298368                       # Cumulative packet size per connected requestor and responder (Byte)
system.membus.pktSize::total                   298368                       # Cumulative packet size per connected requestor and responder (Byte)
system.membus.snoops                                0                       # Total snoops (Count)
system.membus.snoopTraffic                          0                       # Total snoop traffic (Byte)
system.membus.snoopFanout::samples               4662                       # Request fanout histogram (Count)
system.membus.snoopFanout::mean                     0                       # Request fanout histogram (Count)
system.membus.snoopFanout::stdev                    0                       # Request fanout histogram (Count)
system.membus.snoopFanout::underflows               0      0.00%      0.00% # Request fanout histogram (Count)
system.membus.snoopFanout::0                     4662    100.00%    100.00% # Request fanout histogram (Count)
system.membus.snoopFanout::1                        0      0.00%    100.00% # Request fanout histogram (Count)
system.membus.snoopFanout::overflows                0      0.00%    100.00% # Request fanout histogram (Count)
system.membus.snoopFanout::min_value                0                       # Request fanout histogram (Count)
system.membus.snoopFanout::max_value                0                       # Request fanout histogram (Count)
system.membus.snoopFanout::total                 4662                       # Request fanout histogram (Count)
system.membus.power_state.pwrStateResidencyTicks::UNDEFINED    496012000                       # Cumulative time (in ticks) in various power states (Tick)
system.membus.reqLayer2.occupancy             2331000                       # Layer occupancy (ticks) (Tick)
system.membus.reqLayer2.utilization               0.0                       # Layer utilization (Ratio)
system.membus.respLayer0.occupancy           12678500                       # Layer occupancy (ticks) (Tick)
system.membus.respLayer0.utilization              0.0                       # Layer utilization (Ratio)
system.membus.snoop_filter.totRequests           4662                       # Total number of requests made to the snoop filter. (Count)
system.membus.snoop_filter.hitSingleRequests            0                       # Number of requests hitting in the snoop filter with a single holder of the requested data. (Count)
system.membus.snoop_filter.hitMultiRequests            0                       # Number of requests hitting in the snoop filter with multiple (>1) holders of the requested data. (Count)
system.membus.snoop_filter.totSnoops                0                       # Total number of snoops made to the snoop filter. (Count)
system.membus.snoop_filter.hitSingleSnoops            0                       # Number of snoops hitting in the snoop filter with a single holder of the requested data. (Count)
system.membus.snoop_filter.hitMultiSnoops            0                       # Number of snoops hitting in the snoop filter with multiple (>1) holders of the requested data. (Count)
system.workload.inst.arm                            0                       # number of arm instructions executed (Count)
system.workload.inst.quiesce                        0                       # number of quiesce instructions executed (Count)
system.cpu.dcache.decays                         6942                       # Number of decays (Unspecified)

---------- End Simulation Statistics   ----------
